1

   Abaqus 2024.HF5                                  Date 16-Oct-2025   Time 12:20:08
   For use by APOLLO TYRES LTD under license from Dassault Systemes or its subsidiary.



                         The Abaqus Software is a product of:

                           Dassault Systemes Americas Corp.
                           1301 Atwood Avenue, Suite 101W
                              Johnston, RI 02919, USA
 


                   The Abaqus Software is available only under license
                   from Dassault Systemes or its subsidiary and may be
                   used or reproduced only in accordance with the terms
                   of such license.
 
                          On machine CHENSIMS04 
                          you are authorized to run
                          Abaqus/Standard until 29-Sep-2026

                          Your site id is: 200000000009793 


 
                    For assistance or any other information you may
                    obtain contact information for your local office
                    from the world wide web at:

                      https://www.3ds.com/products-services/simulia/services-support/

 
                * * * * * * * * * * * * * * * * * * * * * * * * * * * * * * 
                *                                                         * 
                *                   *****************                     * 
                *                   *  N O T I C E  *                     * 
                *                   *****************                     * 
                *                                                         * 
                *                                                         * 
                *                     Abaqus 2024.HF5                     * 
                *                                                         * 
                *       BUILD ID: 2024_09_25-22.49.41 RELr426 191541      * 
                *                                                         * 
                *                                                         * 
                *  Please make sure you are using                         * 
                *  release Abaqus 2024.HF5 manuals                        * 
                *  plus the notes accompanying this release.              * 
                *                                                         * 
                *                                                         * 
                *                                                         * 
                *                                                         * 
                * * * * * * * * * * * * * * * * * * * * * * * * * * * * * * 


 



     PROCESSING PART, INSTANCE, AND ASSEMBLY INFORMATION
   *******************************************************


 ***WARNING: The following entries for set      SOLID  are not found and are 
             removed:      6, 8, 9, 10, 11, 12, 13, 14, 22, 23, 24, 25, 26, 27, 
             28, 32, 33, 34, 39, 40  . This list is truncated to 20 entries.

     END PROCESSING PART, INSTANCE, AND ASSEMBLY INFORMATION
   ***********************************************************




     OPTIONS BEING PROCESSED
   ***************************


  *HEADING
           SYMMETRIC RESULTS TRANSFER FOR TIRE MODEL                                                                                                                                                                                                                                                                                                                                                                                                                                                                                      
  *ELEMENT,TYPE=CGAX4H,ELSET=TREAD
  *ELEMENT,TYPE=CGAX3H,ELSET=TREAD
  *ELEMENT,TYPE=CGAX4H,ELSET=SIDE
  *ELEMENT,TYPE=CGAX4H,ELSET=BELT
  *ELSET,ELSET=CARCASS
  *ELEMENT,TYPE=SFMGAX1,ELSET=MEM_BELT1
  *ELEMENT,TYPE=SFMGAX1,ELSET=MEM_BELT2
  *ELEMENT,TYPE=SFMGAX1,ELSET=MEM_CARCASS
  *ELSET,ELSET=SOLID,GENERATE
  *material, name=RUBBER
  *hyperelastic, n=1, moduli=LONGTERM
  *viscoelastic, time=PRONY
  *density
  *material, name=BELT
  *elastic, type=ISOTROPIC
  *density
  *material, name=CARCASS
  *elastic, type=ISOTROPIC
  *density
  *solidsection, elset=TREAD, material=RUBBER
  *solidsection, elset=SIDE, material=RUBBER
  *solidsection, elset=BELT, material=RUBBER
  *solidsection, elset=TREAD, material=RUBBER
  *solidsection, elset=SIDE, material=RUBBER
  *solidsection, elset=BELT, material=RUBBER
  *surfacesection, elset=MEM_BELT1
  *surfacesection, elset=MEM_BELT2
  *surfacesection, elset=MEM_CARCASS
  *surfacesection, elset=MEM_BELT1
  *surfacesection, elset=MEM_BELT2
  *surfacesection, elset=MEM_CARCASS
  *rigidbody, tienset=RIMNOD, refnode=RIM
  *rigidbody, tienset=RIMNOD, refnode=RIM
  *rigidbody, tienset=RIMNOD, refnode=RIM
  *rigidbody, tienset=RIMNOD, refnode=RIM
  *surface, name=INSIDE
  *surface, name=INSIDE
  *rigidbody, tienset=RIMNOD, refnode=RIM
  *embeddedelement, hostelset=CARCASS, roundofftoler
  *embeddedelement, hostelset=BELT, roundofftoleranc
  *embeddedelement, hostelset=CARCASS, roundofftoler
  *embeddedelement, hostelset=BELT, roundofftoleranc
  *embeddedelement, hostelset=CARCASS, roundofftoler
  *embeddedelement, hostelset=BELT, roundofftoleranc
  *rigidbody, tienset=RIMNOD, refnode=RIM
  *rigidbody, tienset=RIMNOD, refnode=RIM
  *boundary
  *boundary
  *rigidbody, tienset=RIMNOD, refnode=RIM
  *rebarlayer
  *rebarlayer
  *rebarlayer
  *surface, name=INSIDE
  *embeddedelement, hostelset=CARCASS, roundofftoler
  *embeddedelement, hostelset=BELT, roundofftoleranc
  *output, field, frequency=1
  *output, history, variable=PRESELECT, frequency=1
  *elementoutput
  *elementoutput, rebar
  *elementoutput, rebar, elset=MEM_BELT1

 ***NOTE: AXISYMMETRIC SOLID ELEMENTS WITH TWIST AND THE NODES OF THESE 
          ELEMENTS SHOULD BE USED WITH CAUTION WITHIN RIGID BODIES. IN THIS 
          CASE, INCORRECT RESULTS MAY BE OBTAINED IF THE RIGID BODY UNDERGOES 
          LARGE ROTATIONS.

 ***WARNING: 2 NODES OF AXISYMMETRIC SOLID ELEMENTS WITH TWIST ARE DETECTED 
             WHICH ARE USED WITH A RIGID BODY DEFINITION.
  *output, field, frequency=1
  *output, history, variable=PRESELECT, frequency=1
  *elementoutput
  *elementoutput, rebar
  *elementoutput, rebar, elset=MEM_BELT1
  *output, field, frequency=1
  *output, history, variable=PRESELECT, frequency=1
  *elementoutput
  *elementoutput, rebar
  *elementoutput, rebar, elset=MEM_BELT1
  *step, nlgeom=YES, name=Step-1
  *step, nlgeom=YES, name=Step-1
  *output, field, frequency=1
  *output, history, variable=PRESELECT, frequency=1
  *step, nlgeom=YES, name=Step-1
  *step, nlgeom=YES, name=Step-1
  1:  INFLATION                                                                   
  *static, longterm

 ***WARNING: VISCOELASTIC MATERIAL PROPERTIES ARE DEFINED IN THE MODEL AND THE 
             LONG TERM PARAMETER HAS BEEN SET FOR A STATIC ANALYSIS. THE 
             MATERIAL RESPONSE WILL BE BASED ON THE LONG TERM ELASTIC MATERIAL 
             PROPERTIES.
  *boundary
  *dsload
  *nodeprint, frequency=0
  *elprint, frequency=0
  *output, field, frequency=1
  *elementoutput
  *elementoutput, rebar
  *nodeoutput
  *output, history, variable=PRESELECT, frequency=1
  *elementoutput, rebar, elset=MEM_BELT1
  *nodeoutput, nset=RIM
  *endstep

 ***WARNING: ELEMENT OUTPUT IN A SURFACE ELEMENT IS CURRENTLY AVAILABLE ONLY 
             FOR DISTRIBUTED LOADS AND WHEN THE REBAR PARAMETER IS USED

 ***WARNING: ELEMENT OUTPUT IN A SURFACE ELEMENT IS CURRENTLY AVAILABLE ONLY 
             FOR DISTRIBUTED LOADS AND WHEN THE REBAR PARAMETER IS USED

 ***WARNING: ELEMENT OUTPUT WITH REBAR PARAMETER IS CURRENTLY AVAILABLE FOR 
             MEMBRANE, SHELL OR SURFACE ELEMENTS ONLY. IN ORDER TO VISUALIZE 
             THE REBAR RESULTS, YOU SHOULD CONVERT THE INPUT DATA SO THAT THE 
             REBAR IS DEFINED USING MEMBRANE, SHELL OR SURFACE ELEMENTS.

 ***WARNING: ELEMENT OUTPUT WITH REBAR PARAMETER IS CURRENTLY AVAILABLE FOR 
             MEMBRANE, SHELL OR SURFACE ELEMENTS ONLY. IN ORDER TO VISUALIZE 
             THE REBAR RESULTS, YOU SHOULD CONVERT THE INPUT DATA SO THAT THE 
             REBAR IS DEFINED USING MEMBRANE, SHELL OR SURFACE ELEMENTS.

 ***WARNING: ELEMENT OUTPUT IN A SURFACE ELEMENT IS CURRENTLY AVAILABLE ONLY 
             FOR DISTRIBUTED LOADS AND WHEN THE REBAR PARAMETER IS USED
  *step, nlgeom=YES, name=Step-1
  *static, longterm
  *boundary
  *endstep

     - (RAMP) OR (STEP) - INDICATE USE OF DEFAULT AMPLITUDES ASSOCIATED WITH THE STEP



                            P R O B L E M   S I Z E


          NUMBER OF ELEMENTS IS                                    43
          NUMBER OF ELEMENTS DEFINED BY THE USER AND *TIE          42
          NUMBER OF NODES IS                                       82
          NUMBER OF NODES DEFINED BY THE USER                      62
          NUMBER OF INTERNAL NODES GENERATED BY THE PROGRAM        20
          TOTAL NUMBER OF VARIABLES IN THE MODEL                  218
          (DEGREES OF FREEDOM PLUS MAX NO. OF ANY LAGRANGE MULTIPLIER
           VARIABLES. INCLUDE *PRINT,SOLVE=YES TO GET THE ACTUAL NUMBER.)



                              END OF USER INPUT PROCESSING



     JOB TIME SUMMARY
       USER TIME (SEC)      =     0.20    
       SYSTEM TIME (SEC)    =     0.30    
       TOTAL CPU TIME (SEC) =     0.50    
       WALLCLOCK TIME (SEC) =            1
1

   Abaqus 2024.HF5                                  Date 16-Oct-2025   Time 12:20:12
   For use by APOLLO TYRES LTD under license from Dassault Systemes or its subsidiary.

      SYMMETRIC RESULTS TRANSFER FOR TIRE MODEL                                                STEP    1  INCREMENT    1
     1:  INFLATION                                                                        TIME COMPLETED IN THIS STEP   0.00    


                        S T E P       1     S T A T I C   A N A L Y S I S


          1:  INFLATION                                                                   

     AUTOMATIC TIME CONTROL WITH -
          A SUGGESTED INITIAL TIME INCREMENT OF                0.250    
          AND A TOTAL TIME PERIOD OF                            1.00    
          THE MINIMUM TIME INCREMENT ALLOWED IS                1.000E-05
          THE MAXIMUM TIME INCREMENT ALLOWED IS                 1.00    

     LINEAR EQUATION SOLVER TYPE         DIRECT SPARSE

          LARGE DISPLACEMENT THEORY WILL BE USED
  
                   M E M O R Y   E S T I M A T E
  
 PROCESS      FLOATING PT       MINIMUM MEMORY        MEMORY TO
              OPERATIONS           REQUIRED          MINIMIZE I/O
             PER ITERATION           (MB)               (MB)
  
     1          4.87E+04               17                 24
  
 NOTE:
      (1) SINCE ABAQUS DOES NOT PRE-ALLOCATE MEMORY AND ONLY ALLOCATES MEMORY AS NEEDED DURING THE ANALYSIS,
          THE MEMORY REQUIREMENT PRINTED HERE CAN ONLY BE VIEWED AS A GENERAL GUIDELINE BASED ON THE BEST
          KNOWLEDGE AVAILABLE AT THE BEGINNING OF A STEP BEFORE THE SOLUTION PROCESS HAS BEGUN.
      (2) THE ESTIMATE IS NORMALLY UPDATED AT THE BEGINNING OF EVERY STEP. IT IS THE MAXIMUM VALUE OF THE
          ESTIMATE FROM THE CURRENT STEP TO THE LAST STEP OF THE ANALYSIS, WITH UNSYMMETRIC SOLUTION TAKEN
          INTO ACCOUNT IF APPLICABLE. 
      (3) SINCE THE ESTIMATE IS BASED ON THE ACTIVE DEGREES OF FREEDOM IN THE FIRST ITERATION OF THE 
          CURRENT STEP, THE MEMORY ESTIMATE MIGHT BE SIGNIFICANTLY DIFFERENT THAN ACTUAL USAGE FOR 
          PROBLEMS WITH SUBSTANTIAL CHANGES IN ACTIVE DEGREES OF FREEDOM BETWEEN STEPS (OR EVEN WITHIN
          THE SAME STEP). EXAMPLES ARE: PROBLEMS WITH SIGNIFICANT CONTACT CHANGES, PROBLEMS WITH MODEL
          CHANGE, PROBLEMS WITH BOTH STATIC STEP AND STEADY STATE DYNAMIC PROCEDURES WHERE ACOUSTIC 
          ELEMENTS WILL ONLY BE ACTIVATED IN THE STEADY STATE DYNAMIC STEPS.
      (4) FOR MULTI-PROCESS EXECUTION, THE ESTIMATED VALUE OF FLOATING POINT OPERATIONS FOR EACH PROCESS
          IS BASED ON AN INITIAL SCHEDULING OF OPERATIONS AND MIGHT NOT REFLECT THE ACTUAL FLOATING 
          POINT OPERATIONS COMPLETED ON EACH PROCESS. OPERATIONS ARE DYNAMICALLY BALANCED DURING EXECUTION, 
          SO THE ACTUAL BALANCE OF OPERATIONS BETWEEN PROCESSES IS EXPECTED TO BE BETTER THAN THE ESTIMATE
          PRINTED HERE.
      (5) THE UPPER LIMIT OF MEMORY THAT CAN BE ALLOCATED BY ABAQUS WILL IN GENERAL DEPEND ON THE VALUE OF
          THE "MEMORY" PARAMETER AND THE AMOUNT OF PHYSICAL MEMORY AVAILABLE ON THE MACHINE. PLEASE SEE
          THE "ABAQUS ANALYSIS USER'S MANUAL" FOR MORE DETAILS. THE ACTUAL USAGE OF MEMORY AND OF DISK
          SPACE FOR SCRATCH DATA WILL DEPEND ON THIS UPPER LIMIT AS WELL AS THE MEMORY REQUIRED TO MINIMIZE
          I/O. IF THE MEMORY UPPER LIMIT IS GREATER THAN THE MEMORY REQUIRED TO MINIMIZE I/O, THEN THE ACTUAL
          MEMORY USAGE WILL BE CLOSE TO THE ESTIMATED "MEMORY TO MINIMIZE I/O" VALUE, AND THE SCRATCH DISK
          USAGE WILL BE CLOSE-TO-ZERO; OTHERWISE, THE ACTUAL MEMORY USED WILL BE CLOSE TO THE PREVIOUSLY
          MENTIONED MEMORY LIMIT, AND THE SCRATCH DISK USAGE WILL BE ROUGHLY PROPORTIONAL TO THE DIFFERENCE
          BETWEEN THE ESTIMATED "MEMORY TO MINIMIZE I/O" AND THE MEMORY UPPER LIMIT. HOWEVER ACCURATE
          ESTIMATE OF THE SCRATCH DISK SPACE IS NOT POSSIBLE.
      (6) USING "*RESTART, WRITE" CAN GENERATE A LARGE AMOUNT OF DATA WRITTEN IN THE WORK DIRECTORY.


          THE ANALYSIS HAS BEEN COMPLETED



                              ANALYSIS COMPLETE
                              WITH      8 WARNING MESSAGES ON THE DAT FILE



     JOB TIME SUMMARY
       USER TIME (SEC)      =      1.6    
       SYSTEM TIME (SEC)    =     0.70    
       TOTAL CPU TIME (SEC) =      2.3    
       WALLCLOCK TIME (SEC) =            1
