1

   Abaqus 2024.HF5                                  Date 16-Oct-2025   Time 12:20:12
   For use by APOLLO TYRES LTD under license from Dassault Systemes or its subsidiary.

  SYMMETRIC RESULTS TRANSFER FOR TIRE MODEL                                      
 1:  INFLATION                                                                   
 STEP    1     INCREMENT     1     STEP TIME    0.00    


                        S T E P       1     S T A T I C   A N A L Y S I S


          1:  INFLATION                                                                   

     AUTOMATIC TIME CONTROL WITH -
          A SUGGESTED INITIAL TIME INCREMENT OF                0.250    
          AND A TOTAL TIME PERIOD OF                            1.00    
          THE MINIMUM TIME INCREMENT ALLOWED IS                1.000E-05
          THE MAXIMUM TIME INCREMENT ALLOWED IS                 1.00    

     LINEAR EQUATION SOLVER TYPE         DIRECT SPARSE

 CONVERGENCE TOLERANCE PARAMETERS FOR FORCE    
     CRITERION FOR RESIDUAL FORCE     FOR A NONLINEAR PROBLEM          5.000E-03
     CRITERION FOR DISP.    CORRECTION IN A NONLINEAR PROBLEM          1.000E-02
     INITIAL VALUE OF TIME AVERAGE FORCE                               1.000E-02
     AVERAGE FORCE     IS TIME AVERAGE FORCE    
     ALTERNATE CRIT. FOR RESIDUAL FORCE     FOR A NONLINEAR PROBLEM    2.000E-02
     CRITERION FOR ZERO FORCE     RELATIVE TO TIME AVRG. FORCE         1.000E-05
     CRITERION FOR RESIDUAL FORCE     WHEN THERE IS ZERO FLUX          1.000E-05
     CRITERION FOR DISP.    CORRECTION WHEN THERE IS ZERO FLUX         1.000E-03
     CRITERION FOR RESIDUAL FORCE     FOR A LINEAR INCREMENT           1.000E-08
     FIELD CONVERSION RATIO                                             1.00    
     CRITERION FOR ZERO FORCE     REL. TO TIME AVRG. MAX. FORCE        1.000E-05
     CRITERION FOR ZERO DISP.    RELATIVE TO CHARACTERISTIC LENGTH     1.000E-08

 CONVERGENCE TOLERANCE PARAMETERS FOR MOMENT   
     CRITERION FOR RESIDUAL MOMENT    FOR A NONLINEAR PROBLEM          5.000E-03
     CRITERION FOR ROTATION CORRECTION IN A NONLINEAR PROBLEM          1.000E-02
     INITIAL VALUE OF TIME AVERAGE MOMENT                              1.000E-02
     AVERAGE MOMENT    IS TIME AVERAGE MOMENT   
     ALTERNATE CRIT. FOR RESIDUAL MOMENT    FOR A NONLINEAR PROBLEM    2.000E-02
     CRITERION FOR ZERO MOMENT    RELATIVE TO TIME AVRG. MOMENT        1.000E-05
     CRITERION FOR RESIDUAL MOMENT    WHEN THERE IS ZERO FLUX          1.000E-05
     CRITERION FOR ROTATION CORRECTION WHEN THERE IS ZERO FLUX         1.000E-03
     CRITERION FOR RESIDUAL MOMENT    FOR A LINEAR INCREMENT           1.000E-08
     FIELD CONVERSION RATIO                                             1.00    
     CRITERION FOR ZERO MOMENT    REL. TO TIME AVRG. MAX. MOMENT       1.000E-05

     VOLUMETRIC STRAIN COMPATIBILITY TOLERANCE FOR HYBRID SOLIDS       1.000E-05
     AXIAL STRAIN COMPATIBILITY TOLERANCE FOR HYBRID BEAMS             1.000E-05
     TRANS. SHEAR STRAIN COMPATIBILITY TOLERANCE FOR HYBRID BEAMS      1.000E-05
     SOFT CONTACT CONSTRAINT COMPATIBILITY TOLERANCE FOR P>P0          5.000E-03
     SOFT CONTACT CONSTRAINT COMPATIBILITY TOLERANCE FOR P=0.0         0.100    
     CONTACT FORCE ERROR TOLERANCE FOR CONVERT SDI=YES                 1.00    
     DISPLACEMENT COMPATIBILITY TOLERANCE FOR DCOUP ELEMENTS           1.000E-05
     ROTATION COMPATIBILITY TOLERANCE FOR DCOUP ELEMENTS               1.000E-05

 EQUILIBRIUM WILL BE CHECKED FOR SEVERE DISCONTINUITY ITERATIONS

 TIME INCREMENTATION CONTROL PARAMETERS:
     FIRST EQUILIBRIUM ITERATION FOR CONSECUTIVE DIVERGENCE CHECK              4
     EQUILIBRIUM ITERATION AT WHICH LOG. CONVERGENCE RATE CHECK BEGINS         8
     EQUILIBRIUM ITERATION AFTER WHICH ALTERNATE RESIDUAL IS USED              9
     MAXIMUM EQUILIBRIUM ITERATIONS ALLOWED                                   16
     EQUILIBRIUM ITERATION COUNT FOR CUT-BACK IN NEXT INCREMENT               10
     MAXIMUM EQUILIB. ITERS IN TWO INCREMENTS FOR TIME INCREMENT INCREASE      4
     MAXIMUM ITERATIONS FOR SEVERE DISCONTINUITIES                            50
     MAXIMUM ATTEMPTS ALLOWED IN AN INCREMENT                                  5
     MAXIMUM DISCON. ITERS IN TWO INCREMENTS FOR TIME INCREMENT INCREASE      50
     MAXIMUM CONTACT AUGMENTATIONS FOR *SURFACE BEHAVIOR,AUGMENTED LAGRANGE   50
     CUT-BACK FACTOR AFTER DIVERGENCE                                 0.2500    
     CUT-BACK FACTOR FOR TOO SLOW CONVERGENCE                         0.5000    
     CUT-BACK FACTOR AFTER TOO MANY EQUILIBRIUM ITERATIONS            0.7500    
     CUT-BACK FACTOR AFTER TOO MANY SEVERE DISCONTINUITY ITERATIONS   0.2500    
     CUT-BACK FACTOR AFTER PROBLEMS IN ELEMENT ASSEMBLY               0.2500    
     INCREASE FACTOR AFTER TWO INCREMENTS THAT CONVERGE QUICKLY        1.500    
     MAX. TIME INCREMENT INCREASE FACTOR ALLOWED                       1.500    
     MAX. TIME INCREMENT INCREASE FACTOR ALLOWED (DYNAMICS)            1.250    
     MAX. TIME INCREMENT INCREASE FACTOR ALLOWED (DIFFUSION)           2.000    
     MINIMUM TIME INCREMENT RATIO FOR EXTRAPOLATION TO OCCUR          0.1000    
     MAX. RATIO OF TIME INCREMENT TO STABILITY LIMIT                   1.000    
     FRACTION OF STABILITY LIMIT FOR NEW TIME INCREMENT               0.9500    
     TIME INCREMENT INCREASE FACTOR BEFORE A TIME POINT                1.000    
     GLOBAL STABILIZATION CONTROL IS NOT USED

          PRINT OF INCREMENT NUMBER, TIME, ETC., EVERY    1  INCREMENTS

     RESTART FILE WILL BE WRITTEN EVERY   100  INCREMENTS

     THE MAXIMUM NUMBER OF INCREMENTS IN THIS STEP IS                     100

          LARGE DISPLACEMENT THEORY WILL BE USED

     LINEAR EXTRAPOLATION WILL BE USED

     CHARACTERISTIC ELEMENT LENGTH     1.005E-02

     DETAILS REGARDING ACTUAL SOLUTION WAVEFRONT REQUESTED

     DETAILED OUTPUT OF DIAGNOSTICS TO DATABASE REQUESTED

     PRINT OF INCREMENT NUMBER, TIME, ETC., TO THE MESSAGE FILE EVERY     1  INCREMENTS

     ELEMENT OPERATIONS WILL BE CARRIED OUT IN PARALLEL USING   4 THREADS ON 1 DOMAIN

     PARALLEL CONTACT TRACKING ENABLED


     COLLECTING MODEL CONSTRAINT INFORMATION FOR OVERCONSTRAINT CHECKS

     COLLECTING STEP CONSTRAINT INFORMATION FOR OVERCONSTRAINT CHECKS


  INCREMENT     1 STARTS. ATTEMPT NUMBER  1, TIME INCREMENT  0.250    
 
     INITIAL ELEMENT LOAD BALANCE
            DOMAIN    1     THREAD    NUMBER OF ELEMENTS
                              1            11
                              2            13
                              3            11
                              4            8
 
	SYMMETRIC PURE THREAD-BASED DIRECT SPARSE SOLVER RUNNING ON
 	1 HOST x 1 MPI RANK PER HOST x 4 THREADS PER RANK
        NUMBER OF EQUATIONS:  124
        NUMBER OF RHS:        1
        NUMBER OF FLOPS:      4.875e+04
        SOLVER ELAPSED TIME:  15ms

               CONVERGENCE CHECKS FOR EQUILIBRIUM ITERATION     1


 AVERAGE FORCE                       524.       TIME AVG. FORCE        524.    
 LARGEST SCALED RESIDUAL FORCE     -3.503E+03   AT NODE         36   DOF  2
  CORRESPONDING RESIDUAL FORCE     -3.503E+03
 LARGEST INCREMENT OF DISP.         5.974E-04   AT NODE         13   DOF  2
 LARGEST CORRECTION TO DISP.        5.974E-04   AT NODE         13   DOF  2
          FORCE     EQUILIBRIUM NOT ACHIEVED WITHIN TOLERANCE.

 AVERAGE MOMENT                      136.       TIME AVG. MOMENT       136.    
 LARGEST SCALED RESIDUAL MOMENT      71.8       AT NODE         36   DOF  5
  CORRESPONDING RESIDUAL MOMENT      71.8    
 LARGEST INCREMENT OF ROTATION     -2.051E-04   AT NODE         32   DOF  5
 LARGEST CORRECTION TO ROTATION    -2.051E-04   AT NODE         32   DOF  5
          MOMENT    EQUILIBRIUM NOT ACHIEVED WITHIN TOLERANCE.

 COMPATIBILITY ERRORS:
    TYPE                NUMBER EXCEEDING TOLERANCE  MAXIMUM ERROR        IN ELEMENT
 VOLUMETRIC                         13               -4.177E-04                 18
 
	SYMMETRIC PURE THREAD-BASED DIRECT SPARSE SOLVER RUNNING ON
 	1 HOST x 1 MPI RANK PER HOST x 4 THREADS PER RANK
        NUMBER OF EQUATIONS:  124
        NUMBER OF RHS:        1
        NUMBER OF FLOPS:      4.875e+04
        SOLVER ELAPSED TIME:  15ms

               CONVERGENCE CHECKS FOR EQUILIBRIUM ITERATION     2


 AVERAGE FORCE                       426.       TIME AVG. FORCE        426.    
 LARGEST SCALED RESIDUAL FORCE      -349.       AT NODE         19   DOF  1
  CORRESPONDING RESIDUAL FORCE      -349.    
 LARGEST INCREMENT OF DISP.         3.875E-04   AT NODE         22   DOF  1
 LARGEST CORRECTION TO DISP.       -2.123E-04   AT NODE         13   DOF  2
          FORCE     EQUILIBRIUM NOT ACHIEVED WITHIN TOLERANCE.

 AVERAGE MOMENT                      127.       TIME AVG. MOMENT       127.    
 LARGEST SCALED RESIDUAL MOMENT     -4.89       AT NODE         28   DOF  5
  CORRESPONDING RESIDUAL MOMENT     -4.89    
 LARGEST INCREMENT OF ROTATION     -1.760E-04   AT NODE         32   DOF  5
 LARGEST CORRECTION TO ROTATION    -3.644E-05   AT NODE         28   DOF  5
          MOMENT    EQUILIBRIUM NOT ACHIEVED WITHIN TOLERANCE.

 COMPATIBILITY ERRORS:
    TYPE                NUMBER EXCEEDING TOLERANCE  MAXIMUM ERROR        IN ELEMENT
 VOLUMETRIC                         10               -6.057E-05                 18
 
	SYMMETRIC PURE THREAD-BASED DIRECT SPARSE SOLVER RUNNING ON
 	1 HOST x 1 MPI RANK PER HOST x 4 THREADS PER RANK
        NUMBER OF EQUATIONS:  124
        NUMBER OF RHS:        1
        NUMBER OF FLOPS:      4.875e+04
        SOLVER ELAPSED TIME:  15ms

               CONVERGENCE CHECKS FOR EQUILIBRIUM ITERATION     3


 AVERAGE FORCE                       416.       TIME AVG. FORCE        416.    
 LARGEST SCALED RESIDUAL FORCE      -44.3       AT NODE         19   DOF  1
  CORRESPONDING RESIDUAL FORCE      -44.3    
 LARGEST INCREMENT OF DISP.         3.481E-04   AT NODE         22   DOF  1
 LARGEST CORRECTION TO DISP.       -4.944E-05   AT NODE         13   DOF  2
          FORCE     EQUILIBRIUM NOT ACHIEVED WITHIN TOLERANCE.

 AVERAGE MOMENT                      126.       TIME AVG. MOMENT       126.    
 LARGEST SCALED RESIDUAL MOMENT     0.239       AT NODE         36   DOF  5
  CORRESPONDING RESIDUAL MOMENT     0.239    
 LARGEST INCREMENT OF ROTATION     -1.693E-04   AT NODE         32   DOF  5
 LARGEST CORRECTION TO ROTATION    -7.536E-06   AT NODE        125   DOF  5
 ESTIMATE OF ROTATION CORRECTION    3.675E-07
          MOMENT    EQUILIB. ACCEPTED BASED ON SMALL RESIDUAL AND ESTIMATED CORRECTION

 COMPATIBILITY ERRORS:
    TYPE                NUMBER EXCEEDING TOLERANCE  MAXIMUM ERROR        IN ELEMENT
 VOLUMETRIC                          0               -4.636E-06                 18
 
	SYMMETRIC PURE THREAD-BASED DIRECT SPARSE SOLVER RUNNING ON
 	1 HOST x 1 MPI RANK PER HOST x 4 THREADS PER RANK
        NUMBER OF EQUATIONS:  124
        NUMBER OF RHS:        1
        NUMBER OF FLOPS:      4.875e+04
        SOLVER ELAPSED TIME:  15ms

               CONVERGENCE CHECKS FOR EQUILIBRIUM ITERATION     4


 AVERAGE FORCE                       416.       TIME AVG. FORCE        416.    
 LARGEST SCALED RESIDUAL FORCE     -8.387E-02   AT NODE         19   DOF  1
  CORRESPONDING RESIDUAL FORCE     -8.387E-02
 LARGEST INCREMENT OF DISP.         3.469E-04   AT NODE         22   DOF  1
 LARGEST CORRECTION TO DISP.       -1.437E-06   AT NODE        120   DOF  2
          THE FORCE     EQUILIBRIUM EQUATIONS HAVE CONVERGED

 AVERAGE MOMENT                      126.       TIME AVG. MOMENT       126.    
 LARGEST SCALED RESIDUAL MOMENT     1.115E-04   AT NODE         34   DOF  5
  CORRESPONDING RESIDUAL MOMENT     1.115E-04
 LARGEST INCREMENT OF ROTATION     -1.691E-04   AT NODE         32   DOF  5
 LARGEST CORRECTION TO ROTATION     1.638E-07   AT NODE         32   DOF  5
          THE MOMENT    EQUILIBRIUM EQUATIONS HAVE CONVERGED

 COMPATIBILITY ERRORS:
    TYPE                NUMBER EXCEEDING TOLERANCE  MAXIMUM ERROR        IN ELEMENT
 VOLUMETRIC                          0               -7.004E-09                 18

 ITERATION SUMMARY FOR THE INCREMENT:   4 TOTAL ITERATIONS, OF WHICH
   0 ARE SEVERE DISCONTINUITY ITERATIONS AND  4 ARE EQUILIBRIUM ITERATIONS.

 TIME INCREMENT COMPLETED  0.250    ,  FRACTION OF STEP COMPLETED  0.250    
 STEP TIME COMPLETED       0.250    ,  TOTAL TIME COMPLETED        0.250    


  INCREMENT     2 STARTS. ATTEMPT NUMBER  1, TIME INCREMENT  0.250    
 
	SYMMETRIC PURE THREAD-BASED DIRECT SPARSE SOLVER RUNNING ON
 	1 HOST x 1 MPI RANK PER HOST x 4 THREADS PER RANK
        NUMBER OF EQUATIONS:  124
        NUMBER OF RHS:        1
        NUMBER OF FLOPS:      4.875e+04
        SOLVER ELAPSED TIME:  15ms

               CONVERGENCE CHECKS FOR EQUILIBRIUM ITERATION     1


 AVERAGE FORCE                      1.226E+03   TIME AVG. FORCE        821.    
 LARGEST SCALED RESIDUAL FORCE       653.       AT NODE         16   DOF  1
  CORRESPONDING RESIDUAL FORCE       653.    
 LARGEST INCREMENT OF DISP.        -1.414E-04   AT NODE          7   DOF  2
 LARGEST CORRECTION TO DISP.       -3.368E-04   AT NODE         13   DOF  2
          FORCE     EQUILIBRIUM NOT ACHIEVED WITHIN TOLERANCE.

 AVERAGE MOMENT                      257.       TIME AVG. MOMENT       191.    
 LARGEST SCALED RESIDUAL MOMENT     -21.2       AT NODE         32   DOF  5
  CORRESPONDING RESIDUAL MOMENT     -21.2    
 LARGEST INCREMENT OF ROTATION     -1.244E-04   AT NODE         32   DOF  5
 LARGEST CORRECTION TO ROTATION    -5.649E-05   AT NODE         28   DOF  5
          MOMENT    EQUILIBRIUM NOT ACHIEVED WITHIN TOLERANCE.

 COMPATIBILITY ERRORS:
    TYPE                NUMBER EXCEEDING TOLERANCE  MAXIMUM ERROR        IN ELEMENT
 VOLUMETRIC                         11               -1.244E-04                 18
 
	SYMMETRIC PURE THREAD-BASED DIRECT SPARSE SOLVER RUNNING ON
 	1 HOST x 1 MPI RANK PER HOST x 4 THREADS PER RANK
        NUMBER OF EQUATIONS:  124
        NUMBER OF RHS:        1
        NUMBER OF FLOPS:      4.875e+04
        SOLVER ELAPSED TIME:  15ms

               CONVERGENCE CHECKS FOR EQUILIBRIUM ITERATION     2


 AVERAGE FORCE                      1.199E+03   TIME AVG. FORCE        807.    
 LARGEST SCALED RESIDUAL FORCE       73.8       AT NODE         16   DOF  1
  CORRESPONDING RESIDUAL FORCE       73.8    
 LARGEST INCREMENT OF DISP.         1.622E-04   AT NODE         27   DOF  1
 LARGEST CORRECTION TO DISP.        1.006E-04   AT NODE         13   DOF  2
          FORCE     EQUILIBRIUM NOT ACHIEVED WITHIN TOLERANCE.

 AVERAGE MOMENT                      252.       TIME AVG. MOMENT       189.    
 LARGEST SCALED RESIDUAL MOMENT    -0.751       AT NODE         32   DOF  5
  CORRESPONDING RESIDUAL MOMENT    -0.751    
 LARGEST INCREMENT OF ROTATION     -1.353E-04   AT NODE         32   DOF  5
 LARGEST CORRECTION TO ROTATION     1.404E-05   AT NODE         28   DOF  5
 ESTIMATE OF ROTATION CORRECTION    4.963E-07
          MOMENT    EQUILIB. ACCEPTED BASED ON SMALL RESIDUAL AND ESTIMATED CORRECTION

 COMPATIBILITY ERRORS:
    TYPE                NUMBER EXCEEDING TOLERANCE  MAXIMUM ERROR        IN ELEMENT
 VOLUMETRIC                          1               -1.127E-05                 18
 
	SYMMETRIC PURE THREAD-BASED DIRECT SPARSE SOLVER RUNNING ON
 	1 HOST x 1 MPI RANK PER HOST x 4 THREADS PER RANK
        NUMBER OF EQUATIONS:  124
        NUMBER OF RHS:        1
        NUMBER OF FLOPS:      4.875e+04
        SOLVER ELAPSED TIME:  15ms

               CONVERGENCE CHECKS FOR EQUILIBRIUM ITERATION     3


 AVERAGE FORCE                      1.196E+03   TIME AVG. FORCE        806.    
 LARGEST SCALED RESIDUAL FORCE      0.370       AT NODE         16   DOF  1
  CORRESPONDING RESIDUAL FORCE      0.370    
 LARGEST INCREMENT OF DISP.         1.644E-04   AT NODE         27   DOF  1
 LARGEST CORRECTION TO DISP.        4.403E-06   AT NODE        120   DOF  2
 ESTIMATE OF DISP.    CORRECTION    2.203E-08
          FORCE     EQUILIB. ACCEPTED BASED ON SMALL RESIDUAL AND ESTIMATED CORRECTION

 AVERAGE MOMENT                      252.       TIME AVG. MOMENT       189.    
 LARGEST SCALED RESIDUAL MOMENT    -1.119E-03   AT NODE         32   DOF  5
  CORRESPONDING RESIDUAL MOMENT    -1.119E-03
 LARGEST INCREMENT OF ROTATION     -1.357E-04   AT NODE         32   DOF  5
 LARGEST CORRECTION TO ROTATION    -3.916E-07   AT NODE         32   DOF  5
          THE MOMENT    EQUILIBRIUM EQUATIONS HAVE CONVERGED

 COMPATIBILITY ERRORS:
    TYPE                NUMBER EXCEEDING TOLERANCE  MAXIMUM ERROR        IN ELEMENT
 VOLUMETRIC                          0               -3.507E-08                 18
          TIME INCREMENT MAY NOW INCREASE TO    0.375    

 ITERATION SUMMARY FOR THE INCREMENT:   3 TOTAL ITERATIONS, OF WHICH
   0 ARE SEVERE DISCONTINUITY ITERATIONS AND  3 ARE EQUILIBRIUM ITERATIONS.

 TIME INCREMENT COMPLETED  0.250    ,  FRACTION OF STEP COMPLETED  0.500    
 STEP TIME COMPLETED       0.500    ,  TOTAL TIME COMPLETED        0.500    


  INCREMENT     3 STARTS. ATTEMPT NUMBER  1, TIME INCREMENT  0.375    
 
	SYMMETRIC PURE THREAD-BASED DIRECT SPARSE SOLVER RUNNING ON
 	1 HOST x 1 MPI RANK PER HOST x 4 THREADS PER RANK
        NUMBER OF EQUATIONS:  124
        NUMBER OF RHS:        1
        NUMBER OF FLOPS:      4.875e+04
        SOLVER ELAPSED TIME:  15ms

               CONVERGENCE CHECKS FOR EQUILIBRIUM ITERATION     1


 AVERAGE FORCE                      2.091E+03   TIME AVG. FORCE       1.234E+03
 LARGEST SCALED RESIDUAL FORCE      -233.       AT NODE         36   DOF  2
  CORRESPONDING RESIDUAL FORCE      -233.    
 LARGEST INCREMENT OF DISP.        -1.640E-04   AT NODE          7   DOF  2
 LARGEST CORRECTION TO DISP.       -1.704E-04   AT NODE         13   DOF  2
          FORCE     EQUILIBRIUM NOT ACHIEVED WITHIN TOLERANCE.

 AVERAGE MOMENT                      441.       TIME AVG. MOMENT       273.    
 LARGEST SCALED RESIDUAL MOMENT     -15.3       AT NODE         32   DOF  5
  CORRESPONDING RESIDUAL MOMENT     -15.3    
 LARGEST INCREMENT OF ROTATION     -1.786E-04   AT NODE         32   DOF  5
 LARGEST CORRECTION TO ROTATION    -3.975E-05   AT NODE         28   DOF  5
          MOMENT    EQUILIBRIUM NOT ACHIEVED WITHIN TOLERANCE.

 COMPATIBILITY ERRORS:
    TYPE                NUMBER EXCEEDING TOLERANCE  MAXIMUM ERROR        IN ELEMENT
 VOLUMETRIC                          5               -2.081E-05                 29
 
	SYMMETRIC PURE THREAD-BASED DIRECT SPARSE SOLVER RUNNING ON
 	1 HOST x 1 MPI RANK PER HOST x 4 THREADS PER RANK
        NUMBER OF EQUATIONS:  124
        NUMBER OF RHS:        1
        NUMBER OF FLOPS:      4.875e+04
        SOLVER ELAPSED TIME:  15ms

               CONVERGENCE CHECKS FOR EQUILIBRIUM ITERATION     2


 AVERAGE FORCE                      2.083E+03   TIME AVG. FORCE       1.232E+03
 LARGEST SCALED RESIDUAL FORCE      -12.8       AT NODE         36   DOF  2
  CORRESPONDING RESIDUAL FORCE      -12.8    
 LARGEST INCREMENT OF DISP.        -1.715E-04   AT NODE          7   DOF  2
 LARGEST CORRECTION TO DISP.        5.330E-05   AT NODE         13   DOF  2
          FORCE     EQUILIBRIUM NOT ACHIEVED WITHIN TOLERANCE.

 AVERAGE MOMENT                      441.       TIME AVG. MOMENT       273.    
 LARGEST SCALED RESIDUAL MOMENT    -0.293       AT NODE         32   DOF  5
  CORRESPONDING RESIDUAL MOMENT    -0.293    
 LARGEST INCREMENT OF ROTATION     -1.853E-04   AT NODE         32   DOF  5
 LARGEST CORRECTION TO ROTATION     1.012E-05   AT NODE         28   DOF  5
 ESTIMATE OF ROTATION CORRECTION    1.940E-07
          MOMENT    EQUILIB. ACCEPTED BASED ON SMALL RESIDUAL AND ESTIMATED CORRECTION

 COMPATIBILITY ERRORS:
    TYPE                NUMBER EXCEEDING TOLERANCE  MAXIMUM ERROR        IN ELEMENT
 VOLUMETRIC                          0               -2.026E-06                 18
 
	SYMMETRIC PURE THREAD-BASED DIRECT SPARSE SOLVER RUNNING ON
 	1 HOST x 1 MPI RANK PER HOST x 4 THREADS PER RANK
        NUMBER OF EQUATIONS:  124
        NUMBER OF RHS:        1
        NUMBER OF FLOPS:      4.875e+04
        SOLVER ELAPSED TIME:  15ms

               CONVERGENCE CHECKS FOR EQUILIBRIUM ITERATION     3


 AVERAGE FORCE                      2.082E+03   TIME AVG. FORCE       1.232E+03
 LARGEST SCALED RESIDUAL FORCE      8.308E-04   AT NODE          7   DOF  1
  CORRESPONDING RESIDUAL FORCE      8.308E-04
 LARGEST INCREMENT OF DISP.        -1.715E-04   AT NODE          7   DOF  2
 LARGEST CORRECTION TO DISP.        4.822E-07   AT NODE        120   DOF  2
          THE FORCE     EQUILIBRIUM EQUATIONS HAVE CONVERGED

 AVERAGE MOMENT                      441.       TIME AVG. MOMENT       273.    
 LARGEST SCALED RESIDUAL MOMENT    -4.734E-05   AT NODE         32   DOF  5
  CORRESPONDING RESIDUAL MOMENT    -4.734E-05
 LARGEST INCREMENT OF ROTATION     -1.853E-04   AT NODE         32   DOF  5
 LARGEST CORRECTION TO ROTATION     6.772E-08   AT NODE         28   DOF  5
          THE MOMENT    EQUILIBRIUM EQUATIONS HAVE CONVERGED

 COMPATIBILITY ERRORS:
    TYPE                NUMBER EXCEEDING TOLERANCE  MAXIMUM ERROR        IN ELEMENT
 VOLUMETRIC                          0               -1.074E-10                 18

 ITERATION SUMMARY FOR THE INCREMENT:   3 TOTAL ITERATIONS, OF WHICH
   0 ARE SEVERE DISCONTINUITY ITERATIONS AND  3 ARE EQUILIBRIUM ITERATIONS.

 TIME INCREMENT COMPLETED  0.375    ,  FRACTION OF STEP COMPLETED  0.875    
 STEP TIME COMPLETED       0.875    ,  TOTAL TIME COMPLETED        0.875    


  INCREMENT     4 STARTS. ATTEMPT NUMBER  1, TIME INCREMENT  0.125    
 
	SYMMETRIC PURE THREAD-BASED DIRECT SPARSE SOLVER RUNNING ON
 	1 HOST x 1 MPI RANK PER HOST x 4 THREADS PER RANK
        NUMBER OF EQUATIONS:  124
        NUMBER OF RHS:        1
        NUMBER OF FLOPS:      4.875e+04
        SOLVER ELAPSED TIME:  15ms

               CONVERGENCE CHECKS FOR EQUILIBRIUM ITERATION     1


 AVERAGE FORCE                      2.377E+03   TIME AVG. FORCE       1.518E+03
 LARGEST SCALED RESIDUAL FORCE      -4.26       AT NODE          7   DOF  2
  CORRESPONDING RESIDUAL FORCE      -4.26    
 LARGEST INCREMENT OF DISP.        -4.829E-05   AT NODE          7   DOF  2
 LARGEST CORRECTION TO DISP.       -1.486E-05   AT NODE         13   DOF  2
 ESTIMATE OF DISP.    CORRECTION   -3.090E-07
          FORCE     EQUILIB. ACCEPTED BASED ON SMALL RESIDUAL AND ESTIMATED CORRECTION

 AVERAGE MOMENT                      504.       TIME AVG. MOMENT       331.    
 LARGEST SCALED RESIDUAL MOMENT    -0.447       AT NODE         32   DOF  5
  CORRESPONDING RESIDUAL MOMENT    -0.447    
 LARGEST INCREMENT OF ROTATION     -5.944E-05   AT NODE         32   DOF  5
 LARGEST CORRECTION TO ROTATION    -5.715E-06   AT NODE        124   DOF  5
          ROTATION CORRECTION TOO LARGE COMPARED TO ROTATION INCREMENT

 COMPATIBILITY ERRORS:
    TYPE                NUMBER EXCEEDING TOLERANCE  MAXIMUM ERROR        IN ELEMENT
 VOLUMETRIC                          0               -2.784E-07                 29
 
	SYMMETRIC PURE THREAD-BASED DIRECT SPARSE SOLVER RUNNING ON
 	1 HOST x 1 MPI RANK PER HOST x 4 THREADS PER RANK
        NUMBER OF EQUATIONS:  124
        NUMBER OF RHS:        1
        NUMBER OF FLOPS:      4.875e+04
        SOLVER ELAPSED TIME:  12ms

               CONVERGENCE CHECKS FOR EQUILIBRIUM ITERATION     2


 AVERAGE FORCE                      2.377E+03   TIME AVG. FORCE       1.518E+03
 LARGEST SCALED RESIDUAL FORCE     -1.671E-02   AT NODE         36   DOF  2
  CORRESPONDING RESIDUAL FORCE     -1.671E-02
 LARGEST INCREMENT OF DISP.        -4.870E-05   AT NODE          7   DOF  2
 LARGEST CORRECTION TO DISP.        1.456E-06   AT NODE         13   DOF  2
 ESTIMATE OF DISP.    CORRECTION    5.711E-09
          FORCE     EQUILIB. ACCEPTED BASED ON SMALL RESIDUAL AND ESTIMATED CORRECTION

 AVERAGE MOMENT                      504.       TIME AVG. MOMENT       331.    
 LARGEST SCALED RESIDUAL MOMENT     3.568E-04   AT NODE         36   DOF  5
  CORRESPONDING RESIDUAL MOMENT     3.568E-04
 LARGEST INCREMENT OF ROTATION     -5.963E-05   AT NODE         32   DOF  5
 LARGEST CORRECTION TO ROTATION     3.412E-07   AT NODE         28   DOF  5
          THE MOMENT    EQUILIBRIUM EQUATIONS HAVE CONVERGED

 COMPATIBILITY ERRORS:
    TYPE                NUMBER EXCEEDING TOLERANCE  MAXIMUM ERROR        IN ELEMENT
 VOLUMETRIC                          0               -1.541E-09                 29

 ITERATION SUMMARY FOR THE INCREMENT:   2 TOTAL ITERATIONS, OF WHICH
   0 ARE SEVERE DISCONTINUITY ITERATIONS AND  2 ARE EQUILIBRIUM ITERATIONS.

 TIME INCREMENT COMPLETED  0.125    ,  FRACTION OF STEP COMPLETED   1.00    
 STEP TIME COMPLETED        1.00    ,  TOTAL TIME COMPLETED         1.00    

     RESTART INFORMATION WRITTEN IN STEP   1  AFTER INCREMENT     4


          THE ANALYSIS HAS BEEN COMPLETED



     ANALYSIS SUMMARY:
     TOTAL OF          4  INCREMENTS
                       0  CUTBACKS IN AUTOMATIC INCREMENTATION
                      12  ITERATIONS INCLUDING CONTACT ITERATIONS IF PRESENT
                      12  PASSES THROUGH THE EQUATION SOLVER OF WHICH 
                      12  INVOLVE MATRIX DECOMPOSITION, INCLUDING
                       0  DECOMPOSITION(S) OF THE MASS MATRIX
                       1  REORDERING OF EQUATIONS TO MINIMIZE WAVEFRONT
                       0  ADDITIONAL RESIDUAL EVALUATIONS FOR LINE SEARCHES
                       0  ADDITIONAL OPERATOR EVALUATIONS FOR LINE SEARCHES
                       8  WARNING MESSAGES DURING USER INPUT PROCESSING
                       0  WARNING MESSAGES DURING ANALYSIS
                       0  ANALYSIS WARNINGS ARE NUMERICAL PROBLEM MESSAGES
                       0  ANALYSIS WARNINGS ARE NEGATIVE EIGENVALUE MESSAGES
                       0  ERROR MESSAGES



     JOB TIME SUMMARY
       USER TIME (SEC)      =      1.6    
       SYSTEM TIME (SEC)    =     0.70    
       TOTAL CPU TIME (SEC) =      2.3    
       WALLCLOCK TIME (SEC) =            1
       MEMORY PEAK (GB)     =            0
