 Abaqus/Standard 2024.HF5                  DATE 16-Oct-2025 TIME 12:20:12
 SUMMARY OF JOB INFORMATION:
 STEP  INC ATT SEVERE EQUIL TOTAL  TOTAL      STEP       INC OF       DOF    IF
               DISCON ITERS ITERS  TIME/    TIME/LPF    TIME/LPF    MONITOR RIKS
               ITERS               FREQ
   1     1   1     0     4     4  0.250      0.250      0.2500    
   1     2   1     0     3     3  0.500      0.500      0.2500    
   1     3   1     0     3     3  0.875      0.875      0.3750    
   1     4   1     0     2     2  1.00       1.00       0.1250    
                          
 THE ANALYSIS HAS COMPLETED SUCCESSFULLY
