1

   Abaqus 2024.HF5                                  Date 16-Oct-2025   Time 10:25:25
   For use by APOLLO TYRES LTD under license from Dassault Systemes or its subsidiary.

 Project name:                                                                   
  1) EQULIBRIUM ANALYSIS                                                         
 STEP    1     INCREMENT     1     STEP TIME    0.00    


                        S T E P       1     S T A T I C   A N A L Y S I S


           1) EQULIBRIUM ANALYSIS                                                         

     AUTOMATIC TIME CONTROL WITH -
          A SUGGESTED INITIAL TIME INCREMENT OF                 1.00    
          AND A TOTAL TIME PERIOD OF                            1.00    
          THE MINIMUM TIME INCREMENT ALLOWED IS                1.000E-05
          THE MAXIMUM TIME INCREMENT ALLOWED IS                 1.00    

     LINEAR EQUATION SOLVER TYPE         DIRECT SPARSE

 CONVERGENCE TOLERANCE PARAMETERS FOR FORCE    
     CRITERION FOR RESIDUAL FORCE     FOR A NONLINEAR PROBLEM          5.000E-03
     CRITERION FOR DISP.    CORRECTION IN A NONLINEAR PROBLEM          1.000E-02
     INITIAL VALUE OF TIME AVERAGE FORCE                               1.000E-02
     AVERAGE FORCE     IS TIME AVERAGE FORCE    
     ALTERNATE CRIT. FOR RESIDUAL FORCE     FOR A NONLINEAR PROBLEM    2.000E-02
     CRITERION FOR ZERO FORCE     RELATIVE TO TIME AVRG. FORCE         1.000E-05
     CRITERION FOR RESIDUAL FORCE     WHEN THERE IS ZERO FLUX          1.000E-05
     CRITERION FOR DISP.    CORRECTION WHEN THERE IS ZERO FLUX         1.000E-03
     CRITERION FOR RESIDUAL FORCE     FOR A LINEAR INCREMENT           1.000E-08
     FIELD CONVERSION RATIO                                             1.00    
     CRITERION FOR ZERO FORCE     REL. TO TIME AVRG. MAX. FORCE        1.000E-05
     CRITERION FOR ZERO DISP.    RELATIVE TO CHARACTERISTIC LENGTH     1.000E-08

 CONVERGENCE TOLERANCE PARAMETERS FOR MOMENT   
     CRITERION FOR RESIDUAL MOMENT    FOR A NONLINEAR PROBLEM          5.000E-03
     CRITERION FOR ROTATION CORRECTION IN A NONLINEAR PROBLEM          1.000E-02
     INITIAL VALUE OF TIME AVERAGE MOMENT                              1.000E-02
     AVERAGE MOMENT    IS TIME AVERAGE MOMENT   
     ALTERNATE CRIT. FOR RESIDUAL MOMENT    FOR A NONLINEAR PROBLEM    2.000E-02
     CRITERION FOR ZERO MOMENT    RELATIVE TO TIME AVRG. MOMENT        1.000E-05
     CRITERION FOR RESIDUAL MOMENT    WHEN THERE IS ZERO FLUX          1.000E-05
     CRITERION FOR ROTATION CORRECTION WHEN THERE IS ZERO FLUX         1.000E-03
     CRITERION FOR RESIDUAL MOMENT    FOR A LINEAR INCREMENT           1.000E-08
     FIELD CONVERSION RATIO                                             1.00    
     CRITERION FOR ZERO MOMENT    REL. TO TIME AVRG. MAX. MOMENT       1.000E-05

     VOLUMETRIC STRAIN COMPATIBILITY TOLERANCE FOR HYBRID SOLIDS       1.000E-05
     AXIAL STRAIN COMPATIBILITY TOLERANCE FOR HYBRID BEAMS             1.000E-05
     TRANS. SHEAR STRAIN COMPATIBILITY TOLERANCE FOR HYBRID BEAMS      1.000E-05
     SOFT CONTACT CONSTRAINT COMPATIBILITY TOLERANCE FOR P>P0          5.000E-03
     SOFT CONTACT CONSTRAINT COMPATIBILITY TOLERANCE FOR P=0.0         0.100    
     CONTACT FORCE ERROR TOLERANCE FOR CONVERT SDI=YES                 1.00    
     DISPLACEMENT COMPATIBILITY TOLERANCE FOR DCOUP ELEMENTS           1.000E-05
     ROTATION COMPATIBILITY TOLERANCE FOR DCOUP ELEMENTS               1.000E-05

 EQUILIBRIUM WILL BE CHECKED FOR SEVERE DISCONTINUITY ITERATIONS

 TIME INCREMENTATION CONTROL PARAMETERS:
 *** FIRST EQUILIBRIUM ITERATION FOR CONSECUTIVE DIVERGENCE CHECK              8
 *** EQUILIBRIUM ITERATION AT WHICH LOG. CONVERGENCE RATE CHECK BEGINS        10
     EQUILIBRIUM ITERATION AFTER WHICH ALTERNATE RESIDUAL IS USED              9
     MAXIMUM EQUILIBRIUM ITERATIONS ALLOWED                                   16
     EQUILIBRIUM ITERATION COUNT FOR CUT-BACK IN NEXT INCREMENT               10
     MAXIMUM EQUILIB. ITERS IN TWO INCREMENTS FOR TIME INCREMENT INCREASE      4
     MAXIMUM ITERATIONS FOR SEVERE DISCONTINUITIES                            50
     MAXIMUM ATTEMPTS ALLOWED IN AN INCREMENT                                  5
     MAXIMUM DISCON. ITERS IN TWO INCREMENTS FOR TIME INCREMENT INCREASE      50
     MAXIMUM CONTACT AUGMENTATIONS FOR *SURFACE BEHAVIOR,AUGMENTED LAGRANGE   50
     CUT-BACK FACTOR AFTER DIVERGENCE                                 0.2500    
     CUT-BACK FACTOR FOR TOO SLOW CONVERGENCE                         0.5000    
     CUT-BACK FACTOR AFTER TOO MANY EQUILIBRIUM ITERATIONS            0.7500    
     CUT-BACK FACTOR AFTER TOO MANY SEVERE DISCONTINUITY ITERATIONS   0.2500    
     CUT-BACK FACTOR AFTER PROBLEMS IN ELEMENT ASSEMBLY               0.2500    
     INCREASE FACTOR AFTER TWO INCREMENTS THAT CONVERGE QUICKLY        1.500    
     MAX. TIME INCREMENT INCREASE FACTOR ALLOWED                       1.500    
     MAX. TIME INCREMENT INCREASE FACTOR ALLOWED (DYNAMICS)            1.250    
     MAX. TIME INCREMENT INCREASE FACTOR ALLOWED (DIFFUSION)           2.000    
     MINIMUM TIME INCREMENT RATIO FOR EXTRAPOLATION TO OCCUR          0.1000    
     MAX. RATIO OF TIME INCREMENT TO STABILITY LIMIT                   1.000    
     FRACTION OF STABILITY LIMIT FOR NEW TIME INCREMENT               0.9500    
     TIME INCREMENT INCREASE FACTOR BEFORE A TIME POINT                1.000    

 *** INDICATES USE OF NON-DEFAULT TIME INCREMENTATION CONTROL PARAMETER
     SELECTED WITH *CONTROLS

 CONTACT CONTROLS APPLIED TO ALL CONTACT PAIRS:
     GLOBAL STABILIZATION CONTROL IS NOT USED
     RELATIVE PENETRATION TOLERANCE FOR AUGMENTED LAGRANGE CONTACT:
          FINITE-SLIDING SURFACE-TO-SURFACE                            5.000E-02
          OTHERWISE                                                    1.000E-03

          PRINT OF INCREMENT NUMBER, TIME, ETC., EVERY    1  INCREMENTS

     RESTART FILE WILL BE WRITTEN EVERY   100  INCREMENTS

     THE MAXIMUM NUMBER OF INCREMENTS IN THIS STEP IS                    1000

          LARGE DISPLACEMENT THEORY WILL BE USED

          UNSYMMETRIC MATRIX STORAGE AND SOLUTION WILL BE USED

     LINEAR EXTRAPOLATION WILL BE USED

     CHARACTERISTIC ELEMENT LENGTH      10.1    

     DETAILS REGARDING ACTUAL SOLUTION WAVEFRONT REQUESTED

     DETAILED OUTPUT OF DIAGNOSTICS TO DATABASE REQUESTED

     PRINT OF INCREMENT NUMBER, TIME, ETC., TO THE MESSAGE FILE EVERY     1  INCREMENTS

     ELEMENT OPERATIONS WILL BE CARRIED OUT IN PARALLEL USING   8 THREADS ON 1 DOMAIN

     PARALLEL CONTACT TRACKING ENABLED


     COLLECTING MODEL CONSTRAINT INFORMATION FOR OVERCONSTRAINT CHECKS

     COLLECTING STEP CONSTRAINT INFORMATION FOR OVERCONSTRAINT CHECKS


  INCREMENT     1 STARTS. ATTEMPT NUMBER  1, TIME INCREMENT   1.00    
 
     INITIAL ELEMENT LOAD BALANCE
            DOMAIN    1     THREAD    NUMBER OF ELEMENTS
                              1            15104
                              2            15203
                              3            14848
                              4            15104
                              5            15872
                              6            15104
                              7            13312
                              8            15956

 ***WARNING: THERE ARE 2 UNCONNECTED REGIONS IN THE MODEL.

 ***NOTE: SFM TYPE SURFACE ELEMENTS USED TO DEFINE CONTACT SURFACES NOT PART OF 
          A RIGID BODY MAY INCREASE THE NUMBER OF UNCONNECTED REGIONS REPORTED.
 
	UNSYMMETRIC PURE THREAD-BASED DIRECT SPARSE SOLVER RUNNING ON
 	1 HOST x 1 MPI RANK PER HOST x 8 THREADS PER RANK
        NUMBER OF EQUATIONS:  292018
        NUMBER OF RHS:        1
        NUMBER OF FLOPS:      6.810e+11
        SOLVER ELAPSED TIME:  3.0s

               CONVERGENCE CHECKS FOR EQUILIBRIUM ITERATION     1

   MAX. PENETRATION ERROR -461.262E-09   AT NODE 3502035 OF CONTACT PAIR 
   (LOWER_RIM_SLAVE_SURFACE,LOWER_RIM_MASTER_SURFACE)
   MAX. CONTACT FORCE ERROR -440.799E-06   AT NODE 3502035 OF CONTACT PAIR 
   (LOWER_RIM_SLAVE_SURFACE,LOWER_RIM_MASTER_SURFACE)
          THE CONTACT CONSTRAINTS HAVE CONVERGED.

 AVERAGE FORCE                       11.8       TIME AVG. FORCE        11.8    
 LARGEST SCALED RESIDUAL FORCE      -7.57       AT NODE    6002170   DOF  3
  CORRESPONDING RESIDUAL FORCE      -7.57    
 LARGEST INCREMENT OF DISP.        -0.260       AT NODE    5002720   DOF  3
 LARGEST CORRECTION TO DISP.       -0.260       AT NODE    5002720   DOF  3
          FORCE     EQUILIBRIUM NOT ACHIEVED WITHIN TOLERANCE.

 AVERAGE MOMENT                     6.884E+03   TIME AVG. MOMENT      6.884E+03
 ALL MOMENT    RESIDUALS ARE ZERO
 LARGEST INCREMENT OF ROTATION      1.060E-32   AT NODE          1   DOF  4
 LARGEST CORRECTION TO ROTATION     1.060E-32   AT NODE          1   DOF  4
          THE MOMENT    EQUILIBRIUM RESPONSE WAS LINEAR IN THIS INCREMENT

 COMPATIBILITY ERRORS:
    TYPE                NUMBER EXCEEDING TOLERANCE  MAXIMUM ERROR        IN ELEMENT
 VOLUMETRIC                        171               -1.237E-05            4002584
 
	UNSYMMETRIC PURE THREAD-BASED DIRECT SPARSE SOLVER RUNNING ON
 	1 HOST x 1 MPI RANK PER HOST x 8 THREADS PER RANK
        NUMBER OF EQUATIONS:  292018
        NUMBER OF RHS:        1
        NUMBER OF FLOPS:      6.810e+11
        SOLVER ELAPSED TIME:  3.0s

               CONVERGENCE CHECKS FOR EQUILIBRIUM ITERATION     2

   MAX. PENETRATION ERROR -40.1702E-12  AT NODE 3502408 OF CONTACT PAIR 
   (UPPER_RIM_SLAVE_SURFACE,UPPER_RIM_MASTER_SURFACE)
   MAX. CONTACT FORCE ERROR -148.460E-09   AT NODE 5002465 OF CONTACT PAIR 
   (UPPER_RIM_SLAVE_SURFACE,UPPER_RIM_MASTER_SURFACE)
          THE CONTACT CONSTRAINTS HAVE CONVERGED.

 AVERAGE FORCE                       11.8       TIME AVG. FORCE        11.8    
 LARGEST SCALED RESIDUAL FORCE     -6.458E-03   AT NODE    3902296   DOF  3
  CORRESPONDING RESIDUAL FORCE     -6.458E-03
 LARGEST INCREMENT OF DISP.        -0.252       AT NODE    5002720   DOF  3
 LARGEST CORRECTION TO DISP.        1.008E-02   AT NODE    6002379   DOF  1
 ESTIMATE OF DISP.    CORRECTION    8.593E-06
          FORCE     EQUILIB. ACCEPTED BASED ON SMALL RESIDUAL AND ESTIMATED CORRECTION

 AVERAGE MOMENT                     6.879E+03   TIME AVG. MOMENT      6.879E+03
 ALL MOMENT    RESIDUALS ARE ZERO
 LARGEST INCREMENT OF ROTATION      1.033E-32   AT NODE          1   DOF  4
 LARGEST CORRECTION TO ROTATION    -2.694E-34   AT NODE          1   DOF  4
          THE MOMENT    EQUILIBRIUM EQUATIONS HAVE CONVERGED

 COMPATIBILITY ERRORS:
    TYPE                NUMBER EXCEEDING TOLERANCE  MAXIMUM ERROR        IN ELEMENT
 VOLUMETRIC                          0                5.473E-07            3902551

 ITERATION SUMMARY FOR THE INCREMENT:   2 TOTAL ITERATIONS, OF WHICH
   0 ARE SEVERE DISCONTINUITY ITERATIONS AND  2 ARE EQUILIBRIUM ITERATIONS.

 TIME INCREMENT COMPLETED   1.00    ,  FRACTION OF STEP COMPLETED   1.00    
 STEP TIME COMPLETED        1.00    ,  TOTAL TIME COMPLETED         1.00    

     RESTART INFORMATION WRITTEN IN STEP   1  AFTER INCREMENT     1
1

   Abaqus 2024.HF5                                  Date 16-Oct-2025   Time 10:26:06
   For use by APOLLO TYRES LTD under license from Dassault Systemes or its subsidiary.

 Project name:                                                                   
  2) BRING_IN_CONTACT                                                            
 STEP    2     INCREMENT     1     STEP TIME    0.00    


                        S T E P       2     S T A T I C   A N A L Y S I S


           2) BRING_IN_CONTACT                                                            

     AUTOMATIC TIME CONTROL WITH -
          A SUGGESTED INITIAL TIME INCREMENT OF                0.100    
          AND A TOTAL TIME PERIOD OF                            1.00    
          THE MINIMUM TIME INCREMENT ALLOWED IS                1.000E-05
          THE MAXIMUM TIME INCREMENT ALLOWED IS                 1.00    

     LINEAR EQUATION SOLVER TYPE         DIRECT SPARSE

 CONVERGENCE TOLERANCE PARAMETERS FOR FORCE    
     CRITERION FOR RESIDUAL FORCE     FOR A NONLINEAR PROBLEM          5.000E-03
     CRITERION FOR DISP.    CORRECTION IN A NONLINEAR PROBLEM          1.000E-02
     INIT. VALUE OF TIME AVG. FORCE     IS TIME AVG. FORCE     IN PREVIOUS STEP
     AVERAGE FORCE     IS TIME AVERAGE FORCE    
     ALTERNATE CRIT. FOR RESIDUAL FORCE     FOR A NONLINEAR PROBLEM    2.000E-02
     CRITERION FOR ZERO FORCE     RELATIVE TO TIME AVRG. FORCE         1.000E-05
     CRITERION FOR RESIDUAL FORCE     WHEN THERE IS ZERO FLUX          1.000E-05
     CRITERION FOR DISP.    CORRECTION WHEN THERE IS ZERO FLUX         1.000E-03
     CRITERION FOR RESIDUAL FORCE     FOR A LINEAR INCREMENT           1.000E-08
     FIELD CONVERSION RATIO                                             1.00    
     CRITERION FOR ZERO FORCE     REL. TO TIME AVRG. MAX. FORCE        1.000E-05
     CRITERION FOR ZERO DISP.    RELATIVE TO CHARACTERISTIC LENGTH     1.000E-08

 CONVERGENCE TOLERANCE PARAMETERS FOR MOMENT   
     CRITERION FOR RESIDUAL MOMENT    FOR A NONLINEAR PROBLEM          5.000E-03
     CRITERION FOR ROTATION CORRECTION IN A NONLINEAR PROBLEM          1.000E-02
     INIT. VALUE OF TIME AVG. MOMENT    IS TIME AVG. MOMENT    IN PREVIOUS STEP
     AVERAGE MOMENT    IS TIME AVERAGE MOMENT   
     ALTERNATE CRIT. FOR RESIDUAL MOMENT    FOR A NONLINEAR PROBLEM    2.000E-02
     CRITERION FOR ZERO MOMENT    RELATIVE TO TIME AVRG. MOMENT        1.000E-05
     CRITERION FOR RESIDUAL MOMENT    WHEN THERE IS ZERO FLUX          1.000E-05
     CRITERION FOR ROTATION CORRECTION WHEN THERE IS ZERO FLUX         1.000E-03
     CRITERION FOR RESIDUAL MOMENT    FOR A LINEAR INCREMENT           1.000E-08
     FIELD CONVERSION RATIO                                             1.00    
     CRITERION FOR ZERO MOMENT    REL. TO TIME AVRG. MAX. MOMENT       1.000E-05

     VOLUMETRIC STRAIN COMPATIBILITY TOLERANCE FOR HYBRID SOLIDS       1.000E-05
     AXIAL STRAIN COMPATIBILITY TOLERANCE FOR HYBRID BEAMS             1.000E-05
     TRANS. SHEAR STRAIN COMPATIBILITY TOLERANCE FOR HYBRID BEAMS      1.000E-05
     SOFT CONTACT CONSTRAINT COMPATIBILITY TOLERANCE FOR P>P0          5.000E-03
     SOFT CONTACT CONSTRAINT COMPATIBILITY TOLERANCE FOR P=0.0         0.100    
     CONTACT FORCE ERROR TOLERANCE FOR CONVERT SDI=YES                 1.00    
     DISPLACEMENT COMPATIBILITY TOLERANCE FOR DCOUP ELEMENTS           1.000E-05
     ROTATION COMPATIBILITY TOLERANCE FOR DCOUP ELEMENTS               1.000E-05

 EQUILIBRIUM WILL BE CHECKED FOR SEVERE DISCONTINUITY ITERATIONS

 TIME INCREMENTATION CONTROL PARAMETERS:
 *** FIRST EQUILIBRIUM ITERATION FOR CONSECUTIVE DIVERGENCE CHECK              8
 *** EQUILIBRIUM ITERATION AT WHICH LOG. CONVERGENCE RATE CHECK BEGINS        10
     EQUILIBRIUM ITERATION AFTER WHICH ALTERNATE RESIDUAL IS USED              9
     MAXIMUM EQUILIBRIUM ITERATIONS ALLOWED                                   16
     EQUILIBRIUM ITERATION COUNT FOR CUT-BACK IN NEXT INCREMENT               10
     MAXIMUM EQUILIB. ITERS IN TWO INCREMENTS FOR TIME INCREMENT INCREASE      4
     MAXIMUM ITERATIONS FOR SEVERE DISCONTINUITIES                            50
     MAXIMUM ATTEMPTS ALLOWED IN AN INCREMENT                                  5
     MAXIMUM DISCON. ITERS IN TWO INCREMENTS FOR TIME INCREMENT INCREASE      50
     MAXIMUM CONTACT AUGMENTATIONS FOR *SURFACE BEHAVIOR,AUGMENTED LAGRANGE   50
     CUT-BACK FACTOR AFTER DIVERGENCE                                 0.2500    
     CUT-BACK FACTOR FOR TOO SLOW CONVERGENCE                         0.5000    
     CUT-BACK FACTOR AFTER TOO MANY EQUILIBRIUM ITERATIONS            0.7500    
     CUT-BACK FACTOR AFTER TOO MANY SEVERE DISCONTINUITY ITERATIONS   0.2500    
     CUT-BACK FACTOR AFTER PROBLEMS IN ELEMENT ASSEMBLY               0.2500    
     INCREASE FACTOR AFTER TWO INCREMENTS THAT CONVERGE QUICKLY        1.500    
     MAX. TIME INCREMENT INCREASE FACTOR ALLOWED                       1.500    
     MAX. TIME INCREMENT INCREASE FACTOR ALLOWED (DYNAMICS)            1.250    
     MAX. TIME INCREMENT INCREASE FACTOR ALLOWED (DIFFUSION)           2.000    
     MINIMUM TIME INCREMENT RATIO FOR EXTRAPOLATION TO OCCUR          0.1000    
     MAX. RATIO OF TIME INCREMENT TO STABILITY LIMIT                   1.000    
     FRACTION OF STABILITY LIMIT FOR NEW TIME INCREMENT               0.9500    
     TIME INCREMENT INCREASE FACTOR BEFORE A TIME POINT                1.000    

 *** INDICATES USE OF NON-DEFAULT TIME INCREMENTATION CONTROL PARAMETER
     SELECTED WITH *CONTROLS

 CONTACT CONTROLS APPLIED TO ALL CONTACT PAIRS:
     GLOBAL STABILIZATION CONTROL IS NOT USED
     RELATIVE PENETRATION TOLERANCE FOR AUGMENTED LAGRANGE CONTACT:
          FINITE-SLIDING SURFACE-TO-SURFACE                            5.000E-02
          OTHERWISE                                                    1.000E-03

          PRINT OF INCREMENT NUMBER, TIME, ETC., EVERY    1  INCREMENTS

     RESTART FILE WILL BE WRITTEN EVERY   100  INCREMENTS

     THE MAXIMUM NUMBER OF INCREMENTS IN THIS STEP IS                    1000

          LARGE DISPLACEMENT THEORY WILL BE USED

          UNSYMMETRIC MATRIX STORAGE AND SOLUTION WILL BE USED

     LINEAR EXTRAPOLATION WILL BE USED

     CHARACTERISTIC ELEMENT LENGTH      10.1    

     DETAILS REGARDING ACTUAL SOLUTION WAVEFRONT REQUESTED

     DETAILED OUTPUT OF DIAGNOSTICS TO DATABASE REQUESTED

     PRINT OF INCREMENT NUMBER, TIME, ETC., TO THE MESSAGE FILE EVERY     1  INCREMENTS

     ELEMENT OPERATIONS WILL BE CARRIED OUT IN PARALLEL USING   8 THREADS ON 1 DOMAIN

     COLLECTING STEP CONSTRAINT INFORMATION FOR OVERCONSTRAINT CHECKS


  INCREMENT     1 STARTS. ATTEMPT NUMBER  1, TIME INCREMENT  0.100    
 
     INITIAL ELEMENT LOAD BALANCE
            DOMAIN    1     THREAD    NUMBER OF ELEMENTS
                              1            15104
                              2            15872
                              3            15104
                              4            14848
                              5            15459
                              6            15444
                              7            13056
                              8            15616

 ***WARNING: THERE ARE 2 UNCONNECTED REGIONS IN THE MODEL.

 ***NOTE: SFM TYPE SURFACE ELEMENTS USED TO DEFINE CONTACT SURFACES NOT PART OF 
          A RIGID BODY MAY INCREASE THE NUMBER OF UNCONNECTED REGIONS REPORTED.
 
	UNSYMMETRIC PURE THREAD-BASED DIRECT SPARSE SOLVER RUNNING ON
 	1 HOST x 1 MPI RANK PER HOST x 8 THREADS PER RANK
        NUMBER OF EQUATIONS:  292018
        NUMBER OF RHS:        1
        NUMBER OF FLOPS:      6.810e+11
        SOLVER ELAPSED TIME:  3.2s

               CONVERGENCE CHECKS FOR EQUILIBRIUM ITERATION     1

   MAX. PENETRATION ERROR -121.169E-15   AT NODE 1102465 OF CONTACT PAIR 
   (UPPER_RIM_SLAVE_SURFACE,UPPER_RIM_MASTER_SURFACE)
   MAX. CONTACT FORCE ERROR -347.935E-12   AT NODE 4702027 OF CONTACT PAIR 
   (LOWER_RIM_SLAVE_SURFACE,LOWER_RIM_MASTER_SURFACE)
          THE CONTACT CONSTRAINTS HAVE CONVERGED.

 AVERAGE FORCE                       11.8       TIME AVG. FORCE        11.8    
 LARGEST SCALED RESIDUAL FORCE      2.874E-05   AT NODE    4002697   DOF  1
  CORRESPONDING RESIDUAL FORCE      2.874E-05
 LARGEST INCREMENT OF DISP.         -1.33       AT NODE          3   DOF  3
 LARGEST CORRECTION TO DISP.        -1.33       AT NODE          3   DOF  3
 ESTIMATE OF DISP.    CORRECTION    5.918E-03
          FORCE     EQUILIB. ACCEPTED BASED ON SMALL RESIDUAL AND ESTIMATED CORRECTION

 AVERAGE MOMENT                     6.907E+03   TIME AVG. MOMENT      6.907E+03
 ALL MOMENT    RESIDUALS ARE ZERO
 LARGEST INCREMENT OF ROTATION      1.033E-32   AT NODE          1   DOF  4
 LARGEST CORRECTION TO ROTATION     1.033E-32   AT NODE          1   DOF  4
          THE MOMENT    EQUILIBRIUM RESPONSE WAS LINEAR IN THIS INCREMENT

 COMPATIBILITY ERRORS:
    TYPE                NUMBER EXCEEDING TOLERANCE  MAXIMUM ERROR        IN ELEMENT
 VOLUMETRIC                          0               -1.283E-11            3902084

 ITERATION SUMMARY FOR THE INCREMENT:   1 TOTAL ITERATIONS, OF WHICH
   0 ARE SEVERE DISCONTINUITY ITERATIONS AND  1 ARE EQUILIBRIUM ITERATIONS.

 TIME INCREMENT COMPLETED  0.100    ,  FRACTION OF STEP COMPLETED  0.100    
 STEP TIME COMPLETED       0.100    ,  TOTAL TIME COMPLETED         1.10    


  INCREMENT     2 STARTS. ATTEMPT NUMBER  1, TIME INCREMENT  0.100    
 
	UNSYMMETRIC PURE THREAD-BASED DIRECT SPARSE SOLVER RUNNING ON
 	1 HOST x 1 MPI RANK PER HOST x 8 THREADS PER RANK
        NUMBER OF EQUATIONS:  292018
        NUMBER OF RHS:        1
        NUMBER OF FLOPS:      6.810e+11
        SOLVER ELAPSED TIME:  3.0s

               CONVERGENCE CHECKS FOR EQUILIBRIUM ITERATION     1

   MAX. PENETRATION ERROR 127.000E-15   AT NODE 5902465 OF CONTACT PAIR 
   (UPPER_RIM_SLAVE_SURFACE,UPPER_RIM_MASTER_SURFACE)
   MAX. CONTACT FORCE ERROR 472.542E-12   AT NODE 5902465 OF CONTACT PAIR 
   (UPPER_RIM_SLAVE_SURFACE,UPPER_RIM_MASTER_SURFACE)
          THE CONTACT CONSTRAINTS HAVE CONVERGED.

 AVERAGE FORCE                       11.8       TIME AVG. FORCE        11.8    
 LARGEST SCALED RESIDUAL FORCE     -2.848E-05   AT NODE    3902697   DOF  1
  CORRESPONDING RESIDUAL FORCE     -2.848E-05
 LARGEST INCREMENT OF DISP.         -1.33       AT NODE          3   DOF  3
 LARGEST CORRECTION TO DISP.        1.011E-04   AT NODE    3902686   DOF  1
          THE FORCE     EQUILIBRIUM EQUATIONS HAVE CONVERGED

 AVERAGE MOMENT                     6.907E+03   TIME AVG. MOMENT      6.907E+03
 ALL MOMENT    RESIDUALS ARE ZERO
 LARGEST INCREMENT OF ROTATION      1.033E-32   AT NODE          1   DOF  4
 LARGEST CORRECTION TO ROTATION    -1.808E-38   AT NODE          1   DOF  4
          THE MOMENT    EQUILIBRIUM RESPONSE WAS LINEAR IN THIS INCREMENT

 COMPATIBILITY ERRORS:
    TYPE                NUMBER EXCEEDING TOLERANCE  MAXIMUM ERROR        IN ELEMENT
 VOLUMETRIC                          0               -1.213E-11            3902084
          TIME INCREMENT MAY NOW INCREASE TO    0.150    

 ITERATION SUMMARY FOR THE INCREMENT:   1 TOTAL ITERATIONS, OF WHICH
   0 ARE SEVERE DISCONTINUITY ITERATIONS AND  1 ARE EQUILIBRIUM ITERATIONS.

 TIME INCREMENT COMPLETED  0.100    ,  FRACTION OF STEP COMPLETED  0.200    
 STEP TIME COMPLETED       0.200    ,  TOTAL TIME COMPLETED         1.20    


  INCREMENT     3 STARTS. ATTEMPT NUMBER  1, TIME INCREMENT  0.150    
 
	UNSYMMETRIC PURE THREAD-BASED DIRECT SPARSE SOLVER RUNNING ON
 	1 HOST x 1 MPI RANK PER HOST x 8 THREADS PER RANK
        NUMBER OF EQUATIONS:  292018
        NUMBER OF RHS:        1
        NUMBER OF FLOPS:      6.810e+11
        SOLVER ELAPSED TIME:  3.3s

               CONVERGENCE CHECKS FOR EQUILIBRIUM ITERATION     1

   MAX. PENETRATION ERROR -86.1770E-15  AT NODE 6002035 OF CONTACT PAIR 
   (LOWER_RIM_SLAVE_SURFACE,LOWER_RIM_MASTER_SURFACE)
   MAX. CONTACT FORCE ERROR 510.773E-12   AT NODE 4902027 OF CONTACT PAIR 
   (LOWER_RIM_SLAVE_SURFACE,LOWER_RIM_MASTER_SURFACE)
          THE CONTACT CONSTRAINTS HAVE CONVERGED.

 AVERAGE FORCE                       11.8       TIME AVG. FORCE        11.8    
 LARGEST SCALED RESIDUAL FORCE      1.545E-06   AT NODE    6002666   DOF  1
  CORRESPONDING RESIDUAL FORCE      1.545E-06
 LARGEST INCREMENT OF DISP.         -2.00       AT NODE          3   DOF  3
 LARGEST CORRECTION TO DISP.        5.371E-06   AT NODE    3902686   DOF  1
          THE FORCE     EQUILIBRIUM EQUATIONS HAVE CONVERGED

 AVERAGE MOMENT                     6.907E+03   TIME AVG. MOMENT      6.907E+03
 ALL MOMENT    RESIDUALS ARE ZERO
 LARGEST INCREMENT OF ROTATION      1.033E-32   AT NODE          1   DOF  4
 LARGEST CORRECTION TO ROTATION    -5.167E-33   AT NODE          1   DOF  4
          THE MOMENT    EQUILIBRIUM RESPONSE WAS LINEAR IN THIS INCREMENT

 COMPATIBILITY ERRORS:
    TYPE                NUMBER EXCEEDING TOLERANCE  MAXIMUM ERROR        IN ELEMENT
 VOLUMETRIC                          0                9.889E-14            3802654
          TIME INCREMENT MAY NOW INCREASE TO    0.225    

 ITERATION SUMMARY FOR THE INCREMENT:   1 TOTAL ITERATIONS, OF WHICH
   0 ARE SEVERE DISCONTINUITY ITERATIONS AND  1 ARE EQUILIBRIUM ITERATIONS.

 TIME INCREMENT COMPLETED  0.150    ,  FRACTION OF STEP COMPLETED  0.350    
 STEP TIME COMPLETED       0.350    ,  TOTAL TIME COMPLETED         1.35    


  INCREMENT     4 STARTS. ATTEMPT NUMBER  1, TIME INCREMENT  0.225    
 
	UNSYMMETRIC PURE THREAD-BASED DIRECT SPARSE SOLVER RUNNING ON
 	1 HOST x 1 MPI RANK PER HOST x 8 THREADS PER RANK
        NUMBER OF EQUATIONS:  292018
        NUMBER OF RHS:        1
        NUMBER OF FLOPS:      6.810e+11
        SOLVER ELAPSED TIME:  3.1s

                   17 SEVERE DISCONTINUITIES OCCURRED DURING THIS ITERATION.
                   17 POINTS CHANGED FROM OPEN TO CLOSED

               CONVERGENCE CHECKS FOR SEVERE DISCONTINUITY ITERATION     1

   MAX. PENETRATION ERROR 243.315E-03   AT NODE 2720 OF CONTACT PAIR 
   (TREAD_TOP_SURFACE,ROAD_MASTER_SURFACE)
   MAX. CONTACT FORCE ERROR 96.7722      AT NODE 2720 OF CONTACT PAIR 
   (TREAD_TOP_SURFACE,ROAD_MASTER_SURFACE)
          PENETRATION ERROR TOO LARGE COMPARED TO DISPLACEMENT INCREMENT.

 AVERAGE FORCE                       11.8       TIME AVG. FORCE        11.8    
 LARGEST SCALED RESIDUAL FORCE     -0.948       AT NODE       2720   DOF  3
  CORRESPONDING RESIDUAL FORCE     -0.948    
 LARGEST INCREMENT OF DISP.         -2.99       AT NODE          3   DOF  3
 LARGEST CORRECTION TO DISP.       -1.787E-06   AT NODE    3902686   DOF  1
          FORCE     EQUILIBRIUM NOT ACHIEVED WITHIN TOLERANCE.

 AVERAGE MOMENT                     6.882E+03   TIME AVG. MOMENT      6.901E+03
 ALL MOMENT    RESIDUALS ARE ZERO
 LARGEST INCREMENT OF ROTATION      1.033E-32   AT NODE          1   DOF  4
 LARGEST CORRECTION TO ROTATION    -5.167E-33   AT NODE          1   DOF  4
          THE MOMENT    EQUILIBRIUM EQUATIONS HAVE CONVERGED

 COMPATIBILITY ERRORS:
    TYPE                NUMBER EXCEEDING TOLERANCE  MAXIMUM ERROR        IN ELEMENT
 VOLUMETRIC                          0               -1.222E-13            3302449
 
	UNSYMMETRIC PURE THREAD-BASED DIRECT SPARSE SOLVER RUNNING ON
 	1 HOST x 1 MPI RANK PER HOST x 8 THREADS PER RANK
        NUMBER OF EQUATIONS:  292018
        NUMBER OF RHS:        1
        NUMBER OF FLOPS:      7.212e+11
        SOLVER ELAPSED TIME:  3.9s

                    6 SEVERE DISCONTINUITIES OCCURRED DURING THIS ITERATION.
                    6 POINTS CHANGED FROM CLOSED TO OPEN

               CONVERGENCE CHECKS FOR SEVERE DISCONTINUITY ITERATION     2

   MAX. PENETRATION ERROR -83.0421E-06  AT NODE 102721 OF CONTACT PAIR 
   (TREAD_TOP_SURFACE,ROAD_MASTER_SURFACE)
   MAX. CONTACT FORCE ERROR -4.61254     AT NODE 202720 OF CONTACT PAIR 
   (TREAD_TOP_SURFACE,ROAD_MASTER_SURFACE)
          THE CONTACT CONSTRAINT ERRORS ARE WITHIN THE TOLERANCES.

 AVERAGE FORCE                       11.8       TIME AVG. FORCE        11.8    
 LARGEST SCALED RESIDUAL FORCE      -2.71       AT NODE    9802720   DOF  3
  CORRESPONDING RESIDUAL FORCE      -2.71    
 LARGEST INCREMENT OF DISP.         -2.99       AT NODE          3   DOF  3
 LARGEST CORRECTION TO DISP.       -0.263       AT NODE       2720   DOF  3
          FORCE     EQUILIBRIUM NOT ACHIEVED WITHIN TOLERANCE.

 AVERAGE MOMENT                     6.829E+03   TIME AVG. MOMENT      6.887E+03
 ALL MOMENT    RESIDUALS ARE ZERO
 LARGEST INCREMENT OF ROTATION      1.087E-32   AT NODE          1   DOF  4
 LARGEST CORRECTION TO ROTATION    -5.418E-34   AT NODE          2   DOF  4
          THE MOMENT    EQUILIBRIUM EQUATIONS HAVE CONVERGED

 COMPATIBILITY ERRORS:
    TYPE                NUMBER EXCEEDING TOLERANCE  MAXIMUM ERROR        IN ELEMENT
 VOLUMETRIC                         98               -1.932E-04               2260
 
	UNSYMMETRIC PURE THREAD-BASED DIRECT SPARSE SOLVER RUNNING ON
 	1 HOST x 1 MPI RANK PER HOST x 8 THREADS PER RANK
        NUMBER OF EQUATIONS:  292018
        NUMBER OF RHS:        1
        NUMBER OF FLOPS:      7.212e+11
        SOLVER ELAPSED TIME:  3.7s

                    2 SEVERE DISCONTINUITIES OCCURRED DURING THIS ITERATION.
                    2 POINTS CHANGED FROM CLOSED TO OPEN

               CONVERGENCE CHECKS FOR SEVERE DISCONTINUITY ITERATION     3

   MAX. PENETRATION ERROR -32.4415E-06  AT NODE 102721 OF CONTACT PAIR 
   (TREAD_TOP_SURFACE,ROAD_MASTER_SURFACE)
   MAX. CONTACT FORCE ERROR -1.18265     AT NODE 2684 OF CONTACT PAIR 
   (TREAD_TOP_SURFACE,ROAD_MASTER_SURFACE)
          THE CONTACT CONSTRAINT ERRORS ARE WITHIN THE TOLERANCES.

 AVERAGE FORCE                       11.8       TIME AVG. FORCE        11.8    
 LARGEST SCALED RESIDUAL FORCE     -0.661       AT NODE       2684   DOF  3
  CORRESPONDING RESIDUAL FORCE     -0.661    
 LARGEST INCREMENT OF DISP.         -2.99       AT NODE          3   DOF  3
 LARGEST CORRECTION TO DISP.       -0.165       AT NODE     202720   DOF  3
          FORCE     EQUILIBRIUM NOT ACHIEVED WITHIN TOLERANCE.

 AVERAGE MOMENT                     6.787E+03   TIME AVG. MOMENT      6.877E+03
 ALL MOMENT    RESIDUALS ARE ZERO
 LARGEST INCREMENT OF ROTATION      1.105E-32   AT NODE          1   DOF  4
 LARGEST CORRECTION TO ROTATION    -1.759E-34   AT NODE          2   DOF  4
          THE MOMENT    EQUILIBRIUM EQUATIONS HAVE CONVERGED

 COMPATIBILITY ERRORS:
    TYPE                NUMBER EXCEEDING TOLERANCE  MAXIMUM ERROR        IN ELEMENT
 VOLUMETRIC                         28               -2.861E-05               2260
 
	UNSYMMETRIC PURE THREAD-BASED DIRECT SPARSE SOLVER RUNNING ON
 	1 HOST x 1 MPI RANK PER HOST x 8 THREADS PER RANK
        NUMBER OF EQUATIONS:  292018
        NUMBER OF RHS:        1
        NUMBER OF FLOPS:      7.212e+11
        SOLVER ELAPSED TIME:  3.6s

                    2 SEVERE DISCONTINUITIES OCCURRED DURING THIS ITERATION.
                    2 POINTS CHANGED FROM CLOSED TO OPEN

               CONVERGENCE CHECKS FOR SEVERE DISCONTINUITY ITERATION     4

   MAX. PENETRATION ERROR -14.0546E-06  AT NODE 2721 OF CONTACT PAIR 
   (TREAD_TOP_SURFACE,ROAD_MASTER_SURFACE)
   MAX. CONTACT FORCE ERROR -29.6835E-03  AT NODE 102721 OF CONTACT PAIR 
   (TREAD_TOP_SURFACE,ROAD_MASTER_SURFACE)
          THE CONTACT CONSTRAINT ERRORS ARE WITHIN THE TOLERANCES.

 AVERAGE FORCE                       11.8       TIME AVG. FORCE        11.8    
 LARGEST SCALED RESIDUAL FORCE     -1.600E-02   AT NODE     102721   DOF  3
  CORRESPONDING RESIDUAL FORCE     -1.600E-02
 LARGEST INCREMENT OF DISP.         -2.99       AT NODE          3   DOF  3
 LARGEST CORRECTION TO DISP.       -7.740E-02   AT NODE       2684   DOF  3
          DISP.    CORRECTION TOO LARGE COMPARED TO DISP.    INCREMENT

 AVERAGE MOMENT                     6.788E+03   TIME AVG. MOMENT      6.877E+03
 ALL MOMENT    RESIDUALS ARE ZERO
 LARGEST INCREMENT OF ROTATION      1.107E-32   AT NODE          1   DOF  4
 LARGEST CORRECTION TO ROTATION    -2.379E-35   AT NODE          2   DOF  4
          THE MOMENT    EQUILIBRIUM EQUATIONS HAVE CONVERGED

 COMPATIBILITY ERRORS:
    TYPE                NUMBER EXCEEDING TOLERANCE  MAXIMUM ERROR        IN ELEMENT
 VOLUMETRIC                          4               -1.321E-05            9902260
 
	UNSYMMETRIC PURE THREAD-BASED DIRECT SPARSE SOLVER RUNNING ON
 	1 HOST x 1 MPI RANK PER HOST x 8 THREADS PER RANK
        NUMBER OF EQUATIONS:  292018
        NUMBER OF RHS:        1
        NUMBER OF FLOPS:      7.212e+11
        SOLVER ELAPSED TIME:  3.4s

               CONVERGENCE CHECKS FOR EQUILIBRIUM ITERATION     1

   MAX. PENETRATION ERROR -1.12340E-09 AT NODE 102720 OF CONTACT PAIR 
   (TREAD_TOP_SURFACE,ROAD_MASTER_SURFACE)
   MAX. CONTACT FORCE ERROR -447.905E-09   AT NODE 102720 OF CONTACT PAIR 
   (TREAD_TOP_SURFACE,ROAD_MASTER_SURFACE)
          THE CONTACT CONSTRAINTS HAVE CONVERGED.

 AVERAGE FORCE                       11.8       TIME AVG. FORCE        11.8    
 LARGEST SCALED RESIDUAL FORCE     -5.249E-05   AT NODE       2673   DOF  3
  CORRESPONDING RESIDUAL FORCE     -5.249E-05
 LARGEST INCREMENT OF DISP.         -2.99       AT NODE          3   DOF  3
 LARGEST CORRECTION TO DISP.       -9.957E-04   AT NODE     102721   DOF  3
          THE FORCE     EQUILIBRIUM EQUATIONS HAVE CONVERGED

 AVERAGE MOMENT                     6.788E+03   TIME AVG. MOMENT      6.877E+03
 ALL MOMENT    RESIDUALS ARE ZERO
 LARGEST INCREMENT OF ROTATION      1.107E-32   AT NODE          1   DOF  4
 LARGEST CORRECTION TO ROTATION    -5.855E-37   AT NODE          2   DOF  4
          THE MOMENT    EQUILIBRIUM RESPONSE WAS LINEAR IN THIS INCREMENT

 COMPATIBILITY ERRORS:
    TYPE                NUMBER EXCEEDING TOLERANCE  MAXIMUM ERROR        IN ELEMENT
 VOLUMETRIC                          0               -7.462E-10               2262
          TIME INCREMENT MAY NOW INCREASE TO    0.338    

 ITERATION SUMMARY FOR THE INCREMENT:   5 TOTAL ITERATIONS, OF WHICH
   4 ARE SEVERE DISCONTINUITY ITERATIONS AND  1 ARE EQUILIBRIUM ITERATIONS.

 TIME INCREMENT COMPLETED  0.225    ,  FRACTION OF STEP COMPLETED  0.575    
 STEP TIME COMPLETED       0.575    ,  TOTAL TIME COMPLETED         1.58    


  INCREMENT     5 STARTS. ATTEMPT NUMBER  1, TIME INCREMENT  0.338    
 
	UNSYMMETRIC PURE THREAD-BASED DIRECT SPARSE SOLVER RUNNING ON
 	1 HOST x 1 MPI RANK PER HOST x 8 THREADS PER RANK
        NUMBER OF EQUATIONS:  292018
        NUMBER OF RHS:        1
        NUMBER OF FLOPS:      7.212e+11
        SOLVER ELAPSED TIME:  3.6s

                  254 SEVERE DISCONTINUITIES OCCURRED DURING THIS ITERATION.
                  254 POINTS CHANGED FROM OPEN TO CLOSED

               CONVERGENCE CHECKS FOR SEVERE DISCONTINUITY ITERATION     1

   MAX. PENETRATION ERROR 2.59200     AT NODE 2710 OF CONTACT PAIR 
   (TREAD_TOP_SURFACE,ROAD_MASTER_SURFACE)
   MAX. CONTACT FORCE ERROR 907.162       AT NODE 2710 OF CONTACT PAIR 
   (TREAD_TOP_SURFACE,ROAD_MASTER_SURFACE)
          PENETRATION ERROR TOO LARGE COMPARED TO DISPLACEMENT INCREMENT.

 AVERAGE FORCE                       11.6       TIME AVG. FORCE        11.8    
 LARGEST SCALED RESIDUAL FORCE      -113.       AT NODE    9902384   DOF  1
  CORRESPONDING RESIDUAL FORCE      -113.    
 LARGEST INCREMENT OF DISP.         -5.50       AT NODE       2721   DOF  3
 LARGEST CORRECTION TO DISP.        -5.17       AT NODE       2721   DOF  3
          FORCE     EQUILIBRIUM NOT ACHIEVED WITHIN TOLERANCE.

 AVERAGE MOMENT                     5.632E+03   TIME AVG. MOMENT      6.628E+03
 ALL MOMENT    RESIDUALS ARE ZERO
 LARGEST INCREMENT OF ROTATION      2.982E-32   AT NODE          1   DOF  4
 LARGEST CORRECTION TO ROTATION     1.322E-32   AT NODE          1   DOF  4
          THE MOMENT    EQUILIBRIUM EQUATIONS HAVE CONVERGED

 COMPATIBILITY ERRORS:
    TYPE                NUMBER EXCEEDING TOLERANCE  MAXIMUM ERROR        IN ELEMENT
 VOLUMETRIC                      29026                1.824E-02            9902265
 
	UNSYMMETRIC PURE THREAD-BASED DIRECT SPARSE SOLVER RUNNING ON
 	1 HOST x 1 MPI RANK PER HOST x 8 THREADS PER RANK
        NUMBER OF EQUATIONS:  292018
        NUMBER OF RHS:        1
        NUMBER OF FLOPS:      8.229e+11
        SOLVER ELAPSED TIME:  3.8s
   UNIAXIAL CONSTRAINT COULD NOT BE SATISFIED FOR ELEMENT 9500067. THE PROBLEM 
   MAY BE CAUSED BY LARGE STRAIN INCREMENTS. A SMALLER TIME INCREMENT WILL BE 
   USED.
   UNIAXIAL CONSTRAINT COULD NOT BE SATISFIED FOR ELEMENT 9600067. THE PROBLEM 
   MAY BE CAUSED BY LARGE STRAIN INCREMENTS. A SMALLER TIME INCREMENT WILL BE 
   USED.
   UNIAXIAL CONSTRAINT COULD NOT BE SATISFIED FOR ELEMENT 9700067. THE PROBLEM 
   MAY BE CAUSED BY LARGE STRAIN INCREMENTS. A SMALLER TIME INCREMENT WILL BE 
   USED.
   UNIAXIAL CONSTRAINT COULD NOT BE SATISFIED FOR ELEMENT 9700068. THE PROBLEM 
   MAY BE CAUSED BY LARGE STRAIN INCREMENTS. A SMALLER TIME INCREMENT WILL BE 
   USED.
   UNIAXIAL CONSTRAINT COULD NOT BE SATISFIED FOR ELEMENT 9800068. THE PROBLEM 
   MAY BE CAUSED BY LARGE STRAIN INCREMENTS. A SMALLER TIME INCREMENT WILL BE 
   USED.
   UNIAXIAL CONSTRAINT COULD NOT BE SATISFIED FOR ELEMENT 400034. THE PROBLEM 
   MAY BE CAUSED BY LARGE STRAIN INCREMENTS. A SMALLER TIME INCREMENT WILL BE 
   USED.
   UNIAXIAL CONSTRAINT COULD NOT BE SATISFIED FOR ELEMENT 200035. THE PROBLEM 
   MAY BE CAUSED BY LARGE STRAIN INCREMENTS. A SMALLER TIME INCREMENT WILL BE 
   USED.
   UNIAXIAL CONSTRAINT COULD NOT BE SATISFIED FOR ELEMENT 400035. THE PROBLEM 
   MAY BE CAUSED BY LARGE STRAIN INCREMENTS. A SMALLER TIME INCREMENT WILL BE 
   USED.
   UNIAXIAL CONSTRAINT COULD NOT BE SATISFIED FOR ELEMENT 200036. THE PROBLEM 
   MAY BE CAUSED BY LARGE STRAIN INCREMENTS. A SMALLER TIME INCREMENT WILL BE 
   USED.
   UNIAXIAL CONSTRAINT COULD NOT BE SATISFIED FOR ELEMENT 300036. THE PROBLEM 
   MAY BE CAUSED BY LARGE STRAIN INCREMENTS. A SMALLER TIME INCREMENT WILL BE 
   USED.
   UNIAXIAL CONSTRAINT COULD NOT BE SATISFIED FOR ELEMENT 9500065. THE PROBLEM 
   MAY BE CAUSED BY LARGE STRAIN INCREMENTS. A SMALLER TIME INCREMENT WILL BE 
   USED.
   UNIAXIAL CONSTRAINT COULD NOT BE SATISFIED FOR ELEMENT 9600065. THE PROBLEM 
   MAY BE CAUSED BY LARGE STRAIN INCREMENTS. A SMALLER TIME INCREMENT WILL BE 
   USED.
   UNIAXIAL CONSTRAINT COULD NOT BE SATISFIED FOR ELEMENT 9700066. THE PROBLEM 
   MAY BE CAUSED BY LARGE STRAIN INCREMENTS. A SMALLER TIME INCREMENT WILL BE 
   USED.
   UNIAXIAL CONSTRAINT COULD NOT BE SATISFIED FOR ELEMENT 300033. THE PROBLEM 
   MAY BE CAUSED BY LARGE STRAIN INCREMENTS. A SMALLER TIME INCREMENT WILL BE 
   USED.

                   70 SEVERE DISCONTINUITIES OCCURRED DURING THIS ITERATION.
                   70 POINTS CHANGED FROM CLOSED TO OPEN

               CONVERGENCE CHECKS FOR SEVERE DISCONTINUITY ITERATION     2

   MAX. PENETRATION ERROR 129.025E-03   AT NODE 2684 OF CONTACT PAIR 
   (TREAD_TOP_SURFACE,ROAD_MASTER_SURFACE)
   MAX. CONTACT FORCE ERROR -36.6146      AT NODE 702710 OF CONTACT PAIR 
   (TREAD_TOP_SURFACE,ROAD_MASTER_SURFACE)
          PENETRATION ERROR TOO LARGE COMPARED TO DISPLACEMENT INCREMENT.

 AVERAGE FORCE                       11.7       TIME AVG. FORCE        11.8    
 LARGEST SCALED RESIDUAL FORCE      -79.8       AT NODE    9702629   DOF  1
  CORRESPONDING RESIDUAL FORCE      -79.8    
 LARGEST INCREMENT OF DISP.         -4.58       AT NODE       2721   DOF  3
 LARGEST CORRECTION TO DISP.        -2.62       AT NODE       2710   DOF  3
          FORCE     EQUILIBRIUM NOT ACHIEVED WITHIN TOLERANCE.

 AVERAGE MOMENT                     5.899E+03   TIME AVG. MOMENT      6.682E+03
 ALL MOMENT    RESIDUALS ARE ZERO
 LARGEST INCREMENT OF ROTATION      3.845E-32   AT NODE          1   DOF  4
 LARGEST CORRECTION TO ROTATION    -8.642E-33   AT NODE          2   DOF  4
          THE MOMENT    EQUILIBRIUM EQUATIONS HAVE CONVERGED

 COMPATIBILITY ERRORS:
    TYPE                NUMBER EXCEEDING TOLERANCE  MAXIMUM ERROR        IN ELEMENT
 VOLUMETRIC                      18711                1.687E-02               2264
 
	UNSYMMETRIC PURE THREAD-BASED DIRECT SPARSE SOLVER RUNNING ON
 	1 HOST x 1 MPI RANK PER HOST x 8 THREADS PER RANK
        NUMBER OF EQUATIONS:  292018
        NUMBER OF RHS:        1
        NUMBER OF FLOPS:      8.228e+11
        SOLVER ELAPSED TIME:  3.5s

                   46 SEVERE DISCONTINUITIES OCCURRED DURING THIS ITERATION.
                   46 POINTS CHANGED FROM CLOSED TO OPEN

               CONVERGENCE CHECKS FOR SEVERE DISCONTINUITY ITERATION     3

   MAX. PENETRATION ERROR 419.544E-06   AT NODE 2721 OF CONTACT PAIR 
   (TREAD_TOP_SURFACE,ROAD_MASTER_SURFACE)
   MAX. CONTACT FORCE ERROR -21.2875      AT NODE 402308 OF CONTACT PAIR 
   (TREAD_TOP_SURFACE,ROAD_MASTER_SURFACE)
          THE ESTIMATED CONTACT FORCE ERROR IS OUTSIDE OF CONVERGENCE TOLERANCES.

 AVERAGE FORCE                       11.7       TIME AVG. FORCE        11.8    
 LARGEST SCALED RESIDUAL FORCE      -12.1       AT NODE     402308   DOF  3
  CORRESPONDING RESIDUAL FORCE      -12.1    
 LARGEST INCREMENT OF DISP.         -4.53       AT NODE    9902721   DOF  3
 LARGEST CORRECTION TO DISP.        -1.73       AT NODE    9302729   DOF  3
          FORCE     EQUILIBRIUM NOT ACHIEVED WITHIN TOLERANCE.

 AVERAGE MOMENT                     5.973E+03   TIME AVG. MOMENT      6.696E+03
 ALL MOMENT    RESIDUALS ARE ZERO
 LARGEST INCREMENT OF ROTATION      4.290E-32   AT NODE          1   DOF  4
 LARGEST CORRECTION TO ROTATION     4.455E-33   AT NODE          1   DOF  4
          THE MOMENT    EQUILIBRIUM EQUATIONS HAVE CONVERGED

 COMPATIBILITY ERRORS:
    TYPE                NUMBER EXCEEDING TOLERANCE  MAXIMUM ERROR        IN ELEMENT
 VOLUMETRIC                      11122               -6.179E-03            9802281
 
	UNSYMMETRIC PURE THREAD-BASED DIRECT SPARSE SOLVER RUNNING ON
 	1 HOST x 1 MPI RANK PER HOST x 8 THREADS PER RANK
        NUMBER OF EQUATIONS:  292018
        NUMBER OF RHS:        1
        NUMBER OF FLOPS:      8.226e+11
        SOLVER ELAPSED TIME:  4.0s

                   30 SEVERE DISCONTINUITIES OCCURRED DURING THIS ITERATION.
                   30 POINTS CHANGED FROM CLOSED TO OPEN

               CONVERGENCE CHECKS FOR SEVERE DISCONTINUITY ITERATION     4

   MAX. PENETRATION ERROR -402.061E-06   AT NODE 402729 OF CONTACT PAIR 
   (TREAD_TOP_SURFACE,ROAD_MASTER_SURFACE)
   MAX. CONTACT FORCE ERROR -14.7625      AT NODE 9602660 OF CONTACT PAIR 
   (TREAD_TOP_SURFACE,ROAD_MASTER_SURFACE)
          THE ESTIMATED CONTACT FORCE ERROR IS OUTSIDE OF CONVERGENCE TOLERANCES.

 AVERAGE FORCE                       11.7       TIME AVG. FORCE        11.8    
 LARGEST SCALED RESIDUAL FORCE      -8.20       AT NODE    9602660   DOF  3
  CORRESPONDING RESIDUAL FORCE      -8.20    
 LARGEST INCREMENT OF DISP.         -4.53       AT NODE    9902721   DOF  3
 LARGEST CORRECTION TO DISP.        -1.12       AT NODE    9502660   DOF  3
          FORCE     EQUILIBRIUM NOT ACHIEVED WITHIN TOLERANCE.

 AVERAGE MOMENT                     6.030E+03   TIME AVG. MOMENT      6.708E+03
 ALL MOMENT    RESIDUALS ARE ZERO
 LARGEST INCREMENT OF ROTATION     -4.520E-32   AT NODE          2   DOF  4
 LARGEST CORRECTION TO ROTATION    -2.486E-33   AT NODE          2   DOF  4
          THE MOMENT    EQUILIBRIUM EQUATIONS HAVE CONVERGED

 COMPATIBILITY ERRORS:
    TYPE                NUMBER EXCEEDING TOLERANCE  MAXIMUM ERROR        IN ELEMENT
 VOLUMETRIC                       3831               -2.231E-03            9802241
 
	UNSYMMETRIC PURE THREAD-BASED DIRECT SPARSE SOLVER RUNNING ON
 	1 HOST x 1 MPI RANK PER HOST x 8 THREADS PER RANK
        NUMBER OF EQUATIONS:  292018
        NUMBER OF RHS:        1
        NUMBER OF FLOPS:      8.222e+11
        SOLVER ELAPSED TIME:  3.5s

                    9 SEVERE DISCONTINUITIES OCCURRED DURING THIS ITERATION.
                    9 POINTS CHANGED FROM CLOSED TO OPEN

               CONVERGENCE CHECKS FOR SEVERE DISCONTINUITY ITERATION     5

   MAX. PENETRATION ERROR -114.860E-06   AT NODE 302711 OF CONTACT PAIR 
   (TREAD_TOP_SURFACE,ROAD_MASTER_SURFACE)
   MAX. CONTACT FORCE ERROR -2.79765     AT NODE 302233 OF CONTACT PAIR 
   (TREAD_TOP_SURFACE,ROAD_MASTER_SURFACE)
          THE CONTACT CONSTRAINT ERRORS ARE WITHIN THE TOLERANCES.

 AVERAGE FORCE                       11.7       TIME AVG. FORCE        11.8    
 LARGEST SCALED RESIDUAL FORCE      -1.54       AT NODE     302233   DOF  3
  CORRESPONDING RESIDUAL FORCE      -1.54    
 LARGEST INCREMENT OF DISP.         -4.53       AT NODE    9902721   DOF  3
 LARGEST CORRECTION TO DISP.       -0.721       AT NODE    9602660   DOF  3
          FORCE     EQUILIBRIUM NOT ACHIEVED WITHIN TOLERANCE.

 AVERAGE MOMENT                     6.055E+03   TIME AVG. MOMENT      6.713E+03
 ALL MOMENT    RESIDUALS ARE ZERO
 LARGEST INCREMENT OF ROTATION     -4.581E-32   AT NODE          2   DOF  4
 LARGEST CORRECTION TO ROTATION     8.126E-34   AT NODE          3   DOF  4
          THE MOMENT    EQUILIBRIUM EQUATIONS HAVE CONVERGED

 COMPATIBILITY ERRORS:
    TYPE                NUMBER EXCEEDING TOLERANCE  MAXIMUM ERROR        IN ELEMENT
 VOLUMETRIC                        299               -4.523E-04            9602665
 
	UNSYMMETRIC PURE THREAD-BASED DIRECT SPARSE SOLVER RUNNING ON
 	1 HOST x 1 MPI RANK PER HOST x 8 THREADS PER RANK
        NUMBER OF EQUATIONS:  292018
        NUMBER OF RHS:        1
        NUMBER OF FLOPS:      8.221e+11
        SOLVER ELAPSED TIME:  4.1s

               CONVERGENCE CHECKS FOR EQUILIBRIUM ITERATION     1

   MAX. PENETRATION ERROR -12.4965E-06  AT NODE 202233 OF CONTACT PAIR 
   (TREAD_TOP_SURFACE,ROAD_MASTER_SURFACE)
   MAX. CONTACT FORCE ERROR -2.98863E-03 AT NODE 202233 OF CONTACT PAIR 
   (TREAD_TOP_SURFACE,ROAD_MASTER_SURFACE)
          THE CONTACT CONSTRAINTS HAVE CONVERGED.

 AVERAGE FORCE                       11.7       TIME AVG. FORCE        11.8    
 LARGEST SCALED RESIDUAL FORCE      1.289E-02   AT NODE     102695   DOF  2
  CORRESPONDING RESIDUAL FORCE      1.289E-02
 LARGEST INCREMENT OF DISP.         -4.53       AT NODE    9902721   DOF  3
 LARGEST CORRECTION TO DISP.       -0.118       AT NODE     302233   DOF  3
 ESTIMATE OF DISP.    CORRECTION    5.418E-04
          FORCE     EQUILIB. ACCEPTED BASED ON SMALL RESIDUAL AND ESTIMATED CORRECTION

 AVERAGE MOMENT                     6.057E+03   TIME AVG. MOMENT      6.713E+03
 ALL MOMENT    RESIDUALS ARE ZERO
 LARGEST INCREMENT OF ROTATION     -4.588E-32   AT NODE          2   DOF  4
 LARGEST CORRECTION TO ROTATION     8.692E-35   AT NODE          3   DOF  4
          THE MOMENT    EQUILIBRIUM RESPONSE WAS LINEAR IN THIS INCREMENT

 COMPATIBILITY ERRORS:
    TYPE                NUMBER EXCEEDING TOLERANCE  MAXIMUM ERROR        IN ELEMENT
 VOLUMETRIC                          6                1.963E-05             302665
 
	UNSYMMETRIC PURE THREAD-BASED DIRECT SPARSE SOLVER RUNNING ON
 	1 HOST x 1 MPI RANK PER HOST x 8 THREADS PER RANK
        NUMBER OF EQUATIONS:  292018
        NUMBER OF RHS:        1
        NUMBER OF FLOPS:      8.221e+11
        SOLVER ELAPSED TIME:  3.9s

               CONVERGENCE CHECKS FOR EQUILIBRIUM ITERATION     2

   MAX. PENETRATION ERROR -2.00341E-09 AT NODE 202233 OF CONTACT PAIR 
   (TREAD_TOP_SURFACE,ROAD_MASTER_SURFACE)
   MAX. CONTACT FORCE ERROR -479.136E-09   AT NODE 202233 OF CONTACT PAIR 
   (TREAD_TOP_SURFACE,ROAD_MASTER_SURFACE)
          THE CONTACT CONSTRAINTS HAVE CONVERGED.

 AVERAGE FORCE                       11.7       TIME AVG. FORCE        11.8    
 LARGEST SCALED RESIDUAL FORCE     -3.633E-05   AT NODE     402324   DOF  3
  CORRESPONDING RESIDUAL FORCE     -3.633E-05
 LARGEST INCREMENT OF DISP.         -4.53       AT NODE    9902721   DOF  3
 LARGEST CORRECTION TO DISP.        6.581E-04   AT NODE     202233   DOF  1
          THE FORCE     EQUILIBRIUM EQUATIONS HAVE CONVERGED

 AVERAGE MOMENT                     6.057E+03   TIME AVG. MOMENT      6.713E+03
 ALL MOMENT    RESIDUALS ARE ZERO
 LARGEST INCREMENT OF ROTATION     -4.588E-32   AT NODE          2   DOF  4
 LARGEST CORRECTION TO ROTATION     1.270E-36   AT NODE          2   DOF  5
          THE MOMENT    EQUILIBRIUM EQUATIONS HAVE CONVERGED

 COMPATIBILITY ERRORS:
    TYPE                NUMBER EXCEEDING TOLERANCE  MAXIMUM ERROR        IN ELEMENT
 VOLUMETRIC                          0               -1.605E-09             102452

 ITERATION SUMMARY FOR THE INCREMENT:   7 TOTAL ITERATIONS, OF WHICH
   5 ARE SEVERE DISCONTINUITY ITERATIONS AND  2 ARE EQUILIBRIUM ITERATIONS.

 TIME INCREMENT COMPLETED  0.338    ,  FRACTION OF STEP COMPLETED  0.913    
 STEP TIME COMPLETED       0.913    ,  TOTAL TIME COMPLETED         1.91    


  INCREMENT     6 STARTS. ATTEMPT NUMBER  1, TIME INCREMENT  8.750E-02
 
	UNSYMMETRIC PURE THREAD-BASED DIRECT SPARSE SOLVER RUNNING ON
 	1 HOST x 1 MPI RANK PER HOST x 8 THREADS PER RANK
        NUMBER OF EQUATIONS:  292018
        NUMBER OF RHS:        1
        NUMBER OF FLOPS:      8.221e+11
        SOLVER ELAPSED TIME:  4.0s

                   35 SEVERE DISCONTINUITIES OCCURRED DURING THIS ITERATION.
                   35 POINTS CHANGED FROM OPEN TO CLOSED

               CONVERGENCE CHECKS FOR SEVERE DISCONTINUITY ITERATION     1

   MAX. PENETRATION ERROR 111.796E-03   AT NODE 2308 OF CONTACT PAIR 
   (TREAD_TOP_SURFACE,ROAD_MASTER_SURFACE)
   MAX. CONTACT FORCE ERROR 37.4074      AT NODE 402729 OF CONTACT PAIR 
   (TREAD_TOP_SURFACE,ROAD_MASTER_SURFACE)
          PENETRATION ERROR TOO LARGE COMPARED TO DISPLACEMENT INCREMENT.

 AVERAGE FORCE                       11.7       TIME AVG. FORCE        11.8    
 LARGEST SCALED RESIDUAL FORCE      0.976       AT NODE     102695   DOF  2
  CORRESPONDING RESIDUAL FORCE      0.976    
 LARGEST INCREMENT OF DISP.         -1.25       AT NODE    9902660   DOF  3
 LARGEST CORRECTION TO DISP.       -0.418       AT NODE     102660   DOF  3
          FORCE     EQUILIBRIUM NOT ACHIEVED WITHIN TOLERANCE.

 AVERAGE MOMENT                     5.972E+03   TIME AVG. MOMENT      6.590E+03
 ALL MOMENT    RESIDUALS ARE ZERO
 LARGEST INCREMENT OF ROTATION     -5.588E-32   AT NODE          2   DOF  4
 LARGEST CORRECTION TO ROTATION    -4.398E-32   AT NODE          2   DOF  4
          THE MOMENT    EQUILIBRIUM EQUATIONS HAVE CONVERGED

 COMPATIBILITY ERRORS:
    TYPE                NUMBER EXCEEDING TOLERANCE  MAXIMUM ERROR        IN ELEMENT
 VOLUMETRIC                        728                1.136E-04               2225
 
	UNSYMMETRIC PURE THREAD-BASED DIRECT SPARSE SOLVER RUNNING ON
 	1 HOST x 1 MPI RANK PER HOST x 8 THREADS PER RANK
        NUMBER OF EQUATIONS:  292018
        NUMBER OF RHS:        1
        NUMBER OF FLOPS:      8.318e+11
        SOLVER ELAPSED TIME:  4.0s

                   13 SEVERE DISCONTINUITIES OCCURRED DURING THIS ITERATION.
                   13 POINTS CHANGED FROM CLOSED TO OPEN

               CONVERGENCE CHECKS FOR SEVERE DISCONTINUITY ITERATION     2

   MAX. PENETRATION ERROR 139.503E-06   AT NODE 9802660 OF CONTACT PAIR 
   (TREAD_TOP_SURFACE,ROAD_MASTER_SURFACE)
   MAX. CONTACT FORCE ERROR -2.42957     AT NODE 202308 OF CONTACT PAIR 
   (TREAD_TOP_SURFACE,ROAD_MASTER_SURFACE)
          THE CONTACT CONSTRAINT ERRORS ARE WITHIN THE TOLERANCES.

 AVERAGE FORCE                       11.7       TIME AVG. FORCE        11.8    
 LARGEST SCALED RESIDUAL FORCE      -1.47       AT NODE     202308   DOF  3
  CORRESPONDING RESIDUAL FORCE      -1.47    
 LARGEST INCREMENT OF DISP.         -1.22       AT NODE    9702728   DOF  3
 LARGEST CORRECTION TO DISP.       -0.176       AT NODE    9802660   DOF  3
          FORCE     EQUILIBRIUM NOT ACHIEVED WITHIN TOLERANCE.

 AVERAGE MOMENT                     5.994E+03   TIME AVG. MOMENT      6.593E+03
 ALL MOMENT    RESIDUALS ARE ZERO
 LARGEST INCREMENT OF ROTATION     -5.603E-32   AT NODE          2   DOF  4
 LARGEST CORRECTION TO ROTATION    -1.535E-34   AT NODE          2   DOF  4
          THE MOMENT    EQUILIBRIUM EQUATIONS HAVE CONVERGED

 COMPATIBILITY ERRORS:
    TYPE                NUMBER EXCEEDING TOLERANCE  MAXIMUM ERROR        IN ELEMENT
 VOLUMETRIC                         86                5.438E-05            9902665
 
	UNSYMMETRIC PURE THREAD-BASED DIRECT SPARSE SOLVER RUNNING ON
 	1 HOST x 1 MPI RANK PER HOST x 8 THREADS PER RANK
        NUMBER OF EQUATIONS:  292018
        NUMBER OF RHS:        1
        NUMBER OF FLOPS:      8.318e+11
        SOLVER ELAPSED TIME:  3.7s

               CONVERGENCE CHECKS FOR EQUILIBRIUM ITERATION     1

   MAX. PENETRATION ERROR -12.3536E-06  AT NODE 202660 OF CONTACT PAIR 
   (TREAD_TOP_SURFACE,ROAD_MASTER_SURFACE)
   MAX. CONTACT FORCE ERROR -2.99736E-03 AT NODE 9602709 OF CONTACT PAIR 
   (TREAD_TOP_SURFACE,ROAD_MASTER_SURFACE)
          THE CONTACT CONSTRAINTS HAVE CONVERGED.

 AVERAGE FORCE                       11.7       TIME AVG. FORCE        11.8    
 LARGEST SCALED RESIDUAL FORCE      8.586E-02   AT NODE    9502695   DOF  2
  CORRESPONDING RESIDUAL FORCE      8.586E-02
 LARGEST INCREMENT OF DISP.         -1.22       AT NODE    9702728   DOF  3
 LARGEST CORRECTION TO DISP.       -9.420E-02   AT NODE     202308   DOF  3
          FORCE     EQUILIBRIUM NOT ACHIEVED WITHIN TOLERANCE.

 AVERAGE MOMENT                     5.996E+03   TIME AVG. MOMENT      6.594E+03
 ALL MOMENT    RESIDUALS ARE ZERO
 LARGEST INCREMENT OF ROTATION     -5.609E-32   AT NODE          2   DOF  4
 LARGEST CORRECTION TO ROTATION     1.183E-34   AT NODE          3   DOF  4
          THE MOMENT    EQUILIBRIUM RESPONSE WAS LINEAR IN THIS INCREMENT

 COMPATIBILITY ERRORS:
    TYPE                NUMBER EXCEEDING TOLERANCE  MAXIMUM ERROR        IN ELEMENT
 VOLUMETRIC                          1               -1.103E-05             102218
 
	UNSYMMETRIC PURE THREAD-BASED DIRECT SPARSE SOLVER RUNNING ON
 	1 HOST x 1 MPI RANK PER HOST x 8 THREADS PER RANK
        NUMBER OF EQUATIONS:  292018
        NUMBER OF RHS:        1
        NUMBER OF FLOPS:      8.318e+11
        SOLVER ELAPSED TIME:  3.9s

               CONVERGENCE CHECKS FOR EQUILIBRIUM ITERATION     2

   MAX. PENETRATION ERROR -1.84089E-09 AT NODE 202660 OF CONTACT PAIR 
   (TREAD_TOP_SURFACE,ROAD_MASTER_SURFACE)
   MAX. CONTACT FORCE ERROR -389.298E-09   AT NODE 202660 OF CONTACT PAIR 
   (TREAD_TOP_SURFACE,ROAD_MASTER_SURFACE)
          THE CONTACT CONSTRAINTS HAVE CONVERGED.

 AVERAGE FORCE                       11.7       TIME AVG. FORCE        11.8    
 LARGEST SCALED RESIDUAL FORCE     -3.311E-05   AT NODE     302296   DOF  3
  CORRESPONDING RESIDUAL FORCE     -3.311E-05
 LARGEST INCREMENT OF DISP.         -1.22       AT NODE    9702728   DOF  3
 LARGEST CORRECTION TO DISP.        8.219E-04   AT NODE     202660   DOF  2
          THE FORCE     EQUILIBRIUM EQUATIONS HAVE CONVERGED

 AVERAGE MOMENT                     5.996E+03   TIME AVG. MOMENT      6.594E+03
 ALL MOMENT    RESIDUALS ARE ZERO
 LARGEST INCREMENT OF ROTATION     -5.609E-32   AT NODE          2   DOF  4
 LARGEST CORRECTION TO ROTATION    -5.704E-37   AT NODE          2   DOF  4
          THE MOMENT    EQUILIBRIUM EQUATIONS HAVE CONVERGED

 COMPATIBILITY ERRORS:
    TYPE                NUMBER EXCEEDING TOLERANCE  MAXIMUM ERROR        IN ELEMENT
 VOLUMETRIC                          0                7.865E-10             202241

 ITERATION SUMMARY FOR THE INCREMENT:   4 TOTAL ITERATIONS, OF WHICH
   2 ARE SEVERE DISCONTINUITY ITERATIONS AND  2 ARE EQUILIBRIUM ITERATIONS.

 TIME INCREMENT COMPLETED  8.750E-02,  FRACTION OF STEP COMPLETED   1.00    
 STEP TIME COMPLETED        1.00    ,  TOTAL TIME COMPLETED         2.00    

     RESTART INFORMATION WRITTEN IN STEP   2  AFTER INCREMENT     6
1

   Abaqus 2024.HF5                                  Date 16-Oct-2025   Time 10:29:43
   For use by APOLLO TYRES LTD under license from Dassault Systemes or its subsidiary.

 Project name:                                                                   
  3) LOADING_1                                                                   
 STEP    3     INCREMENT     1     STEP TIME    0.00    


                        S T E P       3     S T A T I C   A N A L Y S I S


           3) LOADING_1                                                                   

     AUTOMATIC TIME CONTROL WITH -
          A SUGGESTED INITIAL TIME INCREMENT OF                0.100    
          AND A TOTAL TIME PERIOD OF                            1.00    
          THE MINIMUM TIME INCREMENT ALLOWED IS                1.000E-05
          THE MAXIMUM TIME INCREMENT ALLOWED IS                 1.00    

     LINEAR EQUATION SOLVER TYPE         DIRECT SPARSE

 CONVERGENCE TOLERANCE PARAMETERS FOR FORCE    
     CRITERION FOR RESIDUAL FORCE     FOR A NONLINEAR PROBLEM          5.000E-03
     CRITERION FOR DISP.    CORRECTION IN A NONLINEAR PROBLEM          1.000E-02
     INIT. VALUE OF TIME AVG. FORCE     IS TIME AVG. FORCE     IN PREVIOUS STEP
     AVERAGE FORCE     IS TIME AVERAGE FORCE    
     ALTERNATE CRIT. FOR RESIDUAL FORCE     FOR A NONLINEAR PROBLEM    2.000E-02
     CRITERION FOR ZERO FORCE     RELATIVE TO TIME AVRG. FORCE         1.000E-05
     CRITERION FOR RESIDUAL FORCE     WHEN THERE IS ZERO FLUX          1.000E-05
     CRITERION FOR DISP.    CORRECTION WHEN THERE IS ZERO FLUX         1.000E-03
     CRITERION FOR RESIDUAL FORCE     FOR A LINEAR INCREMENT           1.000E-08
     FIELD CONVERSION RATIO                                             1.00    
     CRITERION FOR ZERO FORCE     REL. TO TIME AVRG. MAX. FORCE        1.000E-05
     CRITERION FOR ZERO DISP.    RELATIVE TO CHARACTERISTIC LENGTH     1.000E-08

 CONVERGENCE TOLERANCE PARAMETERS FOR MOMENT   
     CRITERION FOR RESIDUAL MOMENT    FOR A NONLINEAR PROBLEM          5.000E-03
     CRITERION FOR ROTATION CORRECTION IN A NONLINEAR PROBLEM          1.000E-02
     INIT. VALUE OF TIME AVG. MOMENT    IS TIME AVG. MOMENT    IN PREVIOUS STEP
     AVERAGE MOMENT    IS TIME AVERAGE MOMENT   
     ALTERNATE CRIT. FOR RESIDUAL MOMENT    FOR A NONLINEAR PROBLEM    2.000E-02
     CRITERION FOR ZERO MOMENT    RELATIVE TO TIME AVRG. MOMENT        1.000E-05
     CRITERION FOR RESIDUAL MOMENT    WHEN THERE IS ZERO FLUX          1.000E-05
     CRITERION FOR ROTATION CORRECTION WHEN THERE IS ZERO FLUX         1.000E-03
     CRITERION FOR RESIDUAL MOMENT    FOR A LINEAR INCREMENT           1.000E-08
     FIELD CONVERSION RATIO                                             1.00    
     CRITERION FOR ZERO MOMENT    REL. TO TIME AVRG. MAX. MOMENT       1.000E-05

     VOLUMETRIC STRAIN COMPATIBILITY TOLERANCE FOR HYBRID SOLIDS       1.000E-05
     AXIAL STRAIN COMPATIBILITY TOLERANCE FOR HYBRID BEAMS             1.000E-05
     TRANS. SHEAR STRAIN COMPATIBILITY TOLERANCE FOR HYBRID BEAMS      1.000E-05
     SOFT CONTACT CONSTRAINT COMPATIBILITY TOLERANCE FOR P>P0          5.000E-03
     SOFT CONTACT CONSTRAINT COMPATIBILITY TOLERANCE FOR P=0.0         0.100    
     CONTACT FORCE ERROR TOLERANCE FOR CONVERT SDI=YES                 1.00    
     DISPLACEMENT COMPATIBILITY TOLERANCE FOR DCOUP ELEMENTS           1.000E-05
     ROTATION COMPATIBILITY TOLERANCE FOR DCOUP ELEMENTS               1.000E-05

 EQUILIBRIUM WILL BE CHECKED FOR SEVERE DISCONTINUITY ITERATIONS

 TIME INCREMENTATION CONTROL PARAMETERS:
 *** FIRST EQUILIBRIUM ITERATION FOR CONSECUTIVE DIVERGENCE CHECK              8
 *** EQUILIBRIUM ITERATION AT WHICH LOG. CONVERGENCE RATE CHECK BEGINS        10
     EQUILIBRIUM ITERATION AFTER WHICH ALTERNATE RESIDUAL IS USED              9
     MAXIMUM EQUILIBRIUM ITERATIONS ALLOWED                                   16
     EQUILIBRIUM ITERATION COUNT FOR CUT-BACK IN NEXT INCREMENT               10
     MAXIMUM EQUILIB. ITERS IN TWO INCREMENTS FOR TIME INCREMENT INCREASE      4
     MAXIMUM ITERATIONS FOR SEVERE DISCONTINUITIES                            50
     MAXIMUM ATTEMPTS ALLOWED IN AN INCREMENT                                  5
     MAXIMUM DISCON. ITERS IN TWO INCREMENTS FOR TIME INCREMENT INCREASE      50
     MAXIMUM CONTACT AUGMENTATIONS FOR *SURFACE BEHAVIOR,AUGMENTED LAGRANGE   50
     CUT-BACK FACTOR AFTER DIVERGENCE                                 0.2500    
     CUT-BACK FACTOR FOR TOO SLOW CONVERGENCE                         0.5000    
     CUT-BACK FACTOR AFTER TOO MANY EQUILIBRIUM ITERATIONS            0.7500    
     CUT-BACK FACTOR AFTER TOO MANY SEVERE DISCONTINUITY ITERATIONS   0.2500    
     CUT-BACK FACTOR AFTER PROBLEMS IN ELEMENT ASSEMBLY               0.2500    
     INCREASE FACTOR AFTER TWO INCREMENTS THAT CONVERGE QUICKLY        1.500    
     MAX. TIME INCREMENT INCREASE FACTOR ALLOWED                       1.500    
     MAX. TIME INCREMENT INCREASE FACTOR ALLOWED (DYNAMICS)            1.250    
     MAX. TIME INCREMENT INCREASE FACTOR ALLOWED (DIFFUSION)           2.000    
     MINIMUM TIME INCREMENT RATIO FOR EXTRAPOLATION TO OCCUR          0.1000    
     MAX. RATIO OF TIME INCREMENT TO STABILITY LIMIT                   1.000    
     FRACTION OF STABILITY LIMIT FOR NEW TIME INCREMENT               0.9500    
     TIME INCREMENT INCREASE FACTOR BEFORE A TIME POINT                1.000    

 *** INDICATES USE OF NON-DEFAULT TIME INCREMENTATION CONTROL PARAMETER
     SELECTED WITH *CONTROLS

 CONTACT CONTROLS APPLIED TO ALL CONTACT PAIRS:
     GLOBAL STABILIZATION CONTROL IS NOT USED
     RELATIVE PENETRATION TOLERANCE FOR AUGMENTED LAGRANGE CONTACT:
          FINITE-SLIDING SURFACE-TO-SURFACE                            5.000E-02
          OTHERWISE                                                    1.000E-03

          PRINT OF INCREMENT NUMBER, TIME, ETC., EVERY    1  INCREMENTS

     RESTART FILE WILL BE WRITTEN EVERY   100  INCREMENTS

     THE MAXIMUM NUMBER OF INCREMENTS IN THIS STEP IS                    1000

          LARGE DISPLACEMENT THEORY WILL BE USED

          UNSYMMETRIC MATRIX STORAGE AND SOLUTION WILL BE USED

     LINEAR EXTRAPOLATION WILL BE USED

     CHARACTERISTIC ELEMENT LENGTH      10.1    

     DETAILS REGARDING ACTUAL SOLUTION WAVEFRONT REQUESTED

     DETAILED OUTPUT OF DIAGNOSTICS TO DATABASE REQUESTED

     PRINT OF INCREMENT NUMBER, TIME, ETC., TO THE MESSAGE FILE EVERY     1  INCREMENTS

     ELEMENT OPERATIONS WILL BE CARRIED OUT IN PARALLEL USING   8 THREADS ON 1 DOMAIN

     COLLECTING STEP CONSTRAINT INFORMATION FOR OVERCONSTRAINT CHECKS


  INCREMENT     1 STARTS. ATTEMPT NUMBER  1, TIME INCREMENT  0.100    
 
     INITIAL ELEMENT LOAD BALANCE
            DOMAIN    1     THREAD    NUMBER OF ELEMENTS
                              1            14848
                              2            15872
                              3            14848
                              4            15360
                              5            14775
                              6            14848
                              7            14080
                              8            15872
 
	UNSYMMETRIC PURE THREAD-BASED DIRECT SPARSE SOLVER RUNNING ON
 	1 HOST x 1 MPI RANK PER HOST x 8 THREADS PER RANK
        NUMBER OF EQUATIONS:  292018
        NUMBER OF RHS:        1
        NUMBER OF FLOPS:      8.318e+11
        SOLVER ELAPSED TIME:  3.8s

                   78 SEVERE DISCONTINUITIES OCCURRED DURING THIS ITERATION.
                   78 POINTS CHANGED FROM OPEN TO CLOSED

               CONVERGENCE CHECKS FOR SEVERE DISCONTINUITY ITERATION     1

   MAX. PENETRATION ERROR 669.375E-03   AT NODE 2270 OF CONTACT PAIR 
   (TREAD_TOP_SURFACE,ROAD_MASTER_SURFACE)
   MAX. CONTACT FORCE ERROR 152.436       AT NODE 2741 OF CONTACT PAIR 
   (TREAD_TOP_SURFACE,ROAD_MASTER_SURFACE)
          PENETRATION ERROR TOO LARGE COMPARED TO DISPLACEMENT INCREMENT.

 AVERAGE FORCE                       11.5       TIME AVG. FORCE        11.5    
 LARGEST SCALED RESIDUAL FORCE      -50.6       AT NODE    6402059   DOF  2
  CORRESPONDING RESIDUAL FORCE      -50.6    
 LARGEST INCREMENT OF DISP.         -2.67       AT NODE     102308   DOF  3
 LARGEST CORRECTION TO DISP.        -2.67       AT NODE     102308   DOF  3
          FORCE     EQUILIBRIUM NOT ACHIEVED WITHIN TOLERANCE.

 AVERAGE MOMENT                     5.804E+03   TIME AVG. MOMENT      5.804E+03
 ALL MOMENT    RESIDUALS ARE ZERO
 LARGEST INCREMENT OF ROTATION     -7.917E-32   AT NODE          2   DOF  4
 LARGEST CORRECTION TO ROTATION    -7.917E-32   AT NODE          2   DOF  4
          THE MOMENT    EQUILIBRIUM EQUATIONS HAVE CONVERGED

 COMPATIBILITY ERRORS:
    TYPE                NUMBER EXCEEDING TOLERANCE  MAXIMUM ERROR        IN ELEMENT
 VOLUMETRIC                      34896               -3.304E-03               2241
 
	UNSYMMETRIC PURE THREAD-BASED DIRECT SPARSE SOLVER RUNNING ON
 	1 HOST x 1 MPI RANK PER HOST x 8 THREADS PER RANK
        NUMBER OF EQUATIONS:  292018
        NUMBER OF RHS:        1
        NUMBER OF FLOPS:      8.763e+11
        SOLVER ELAPSED TIME:  4.3s

                   21 SEVERE DISCONTINUITIES OCCURRED DURING THIS ITERATION.
                   21 POINTS CHANGED FROM CLOSED TO OPEN

               CONVERGENCE CHECKS FOR SEVERE DISCONTINUITY ITERATION     2

   MAX. PENETRATION ERROR 1.36526E-03 AT NODE 202270 OF CONTACT PAIR 
   (TREAD_TOP_SURFACE,ROAD_MASTER_SURFACE)
   MAX. CONTACT FORCE ERROR -9.47559     AT NODE 9702741 OF CONTACT PAIR 
   (TREAD_TOP_SURFACE,ROAD_MASTER_SURFACE)
          THE ESTIMATED CONTACT FORCE ERROR IS OUTSIDE OF CONVERGENCE TOLERANCES.

 AVERAGE FORCE                       11.7       TIME AVG. FORCE        11.7    
 LARGEST SCALED RESIDUAL FORCE       104.       AT NODE          3   DOF  3
  CORRESPONDING RESIDUAL FORCE       104.    
 LARGEST INCREMENT OF DISP.         -2.55       AT NODE     402728   DOF  3
 LARGEST CORRECTION TO DISP.       -0.726       AT NODE       2270   DOF  3
          FORCE     EQUILIBRIUM NOT ACHIEVED WITHIN TOLERANCE.

 AVERAGE MOMENT                     5.859E+03   TIME AVG. MOMENT      5.859E+03
 ALL MOMENT    RESIDUALS ARE ZERO
 LARGEST INCREMENT OF ROTATION     -7.880E-32   AT NODE          2   DOF  4
 LARGEST CORRECTION TO ROTATION    -7.758E-34   AT NODE          3   DOF  4
          THE MOMENT    EQUILIBRIUM EQUATIONS HAVE CONVERGED

 COMPATIBILITY ERRORS:
    TYPE                NUMBER EXCEEDING TOLERANCE  MAXIMUM ERROR        IN ELEMENT
 VOLUMETRIC                        881               -1.793E-03            9702281
 
	UNSYMMETRIC PURE THREAD-BASED DIRECT SPARSE SOLVER RUNNING ON
 	1 HOST x 1 MPI RANK PER HOST x 8 THREADS PER RANK
        NUMBER OF EQUATIONS:  292018
        NUMBER OF RHS:        1
        NUMBER OF FLOPS:      8.762e+11
        SOLVER ELAPSED TIME:  3.9s

                    5 SEVERE DISCONTINUITIES OCCURRED DURING THIS ITERATION.
                    5 POINTS CHANGED FROM CLOSED TO OPEN

               CONVERGENCE CHECKS FOR SEVERE DISCONTINUITY ITERATION     3

   MAX. PENETRATION ERROR -315.578E-06   AT NODE 9702270 OF CONTACT PAIR 
   (TREAD_TOP_SURFACE,ROAD_MASTER_SURFACE)
   MAX. CONTACT FORCE ERROR -3.09210     AT NODE 9802741 OF CONTACT PAIR 
   (TREAD_TOP_SURFACE,ROAD_MASTER_SURFACE)
          THE CONTACT CONSTRAINT ERRORS ARE WITHIN THE TOLERANCES.

 AVERAGE FORCE                       11.7       TIME AVG. FORCE        11.7    
 LARGEST SCALED RESIDUAL FORCE       7.84       AT NODE          3   DOF  3
  CORRESPONDING RESIDUAL FORCE       7.84    
 LARGEST INCREMENT OF DISP.         -2.53       AT NODE     402728   DOF  3
 LARGEST CORRECTION TO DISP.       -0.319       AT NODE    9702741   DOF  3
          FORCE     EQUILIBRIUM NOT ACHIEVED WITHIN TOLERANCE.

 AVERAGE MOMENT                     5.888E+03   TIME AVG. MOMENT      5.888E+03
 ALL MOMENT    RESIDUALS ARE ZERO
 LARGEST INCREMENT OF ROTATION     -7.845E-32   AT NODE          2   DOF  4
 LARGEST CORRECTION TO ROTATION     3.504E-34   AT NODE          2   DOF  4
          THE MOMENT    EQUILIBRIUM EQUATIONS HAVE CONVERGED

 COMPATIBILITY ERRORS:
    TYPE                NUMBER EXCEEDING TOLERANCE  MAXIMUM ERROR        IN ELEMENT
 VOLUMETRIC                        156               -3.456E-04            9702281
 
	UNSYMMETRIC PURE THREAD-BASED DIRECT SPARSE SOLVER RUNNING ON
 	1 HOST x 1 MPI RANK PER HOST x 8 THREADS PER RANK
        NUMBER OF EQUATIONS:  292018
        NUMBER OF RHS:        1
        NUMBER OF FLOPS:      8.762e+11
        SOLVER ELAPSED TIME:  3.9s

               CONVERGENCE CHECKS FOR EQUILIBRIUM ITERATION     1

   MAX. PENETRATION ERROR 1.39716E-06 AT NODE 9502710 OF CONTACT PAIR 
   (TREAD_TOP_SURFACE,ROAD_MASTER_SURFACE)
   MAX. CONTACT FORCE ERROR 481.194E-06   AT NODE 9502710 OF CONTACT PAIR 
   (TREAD_TOP_SURFACE,ROAD_MASTER_SURFACE)
          THE CONTACT CONSTRAINTS HAVE CONVERGED.

 AVERAGE FORCE                       11.7       TIME AVG. FORCE        11.7    
 LARGEST SCALED RESIDUAL FORCE     -1.641E-02   AT NODE    8402289   DOF  2
  CORRESPONDING RESIDUAL FORCE     -1.641E-02
 LARGEST INCREMENT OF DISP.         -2.52       AT NODE     402728   DOF  3
 LARGEST CORRECTION TO DISP.       -0.102       AT NODE    9802741   DOF  3
 ESTIMATE OF DISP.    CORRECTION    2.135E-04
          FORCE     EQUILIB. ACCEPTED BASED ON SMALL RESIDUAL AND ESTIMATED CORRECTION

 AVERAGE MOMENT                     5.894E+03   TIME AVG. MOMENT      5.894E+03
 ALL MOMENT    RESIDUALS ARE ZERO
 LARGEST INCREMENT OF ROTATION     -7.842E-32   AT NODE          2   DOF  4
 LARGEST CORRECTION TO ROTATION    -8.143E-35   AT NODE          3   DOF  4
          THE MOMENT    EQUILIBRIUM RESPONSE WAS LINEAR IN THIS INCREMENT

 COMPATIBILITY ERRORS:
    TYPE                NUMBER EXCEEDING TOLERANCE  MAXIMUM ERROR        IN ELEMENT
 VOLUMETRIC                          8               -4.091E-05            9702281
 
	UNSYMMETRIC PURE THREAD-BASED DIRECT SPARSE SOLVER RUNNING ON
 	1 HOST x 1 MPI RANK PER HOST x 8 THREADS PER RANK
        NUMBER OF EQUATIONS:  292018
        NUMBER OF RHS:        1
        NUMBER OF FLOPS:      8.762e+11
        SOLVER ELAPSED TIME:  3.8s

               CONVERGENCE CHECKS FOR EQUILIBRIUM ITERATION     2

   MAX. PENETRATION ERROR -701.456E-12   AT NODE 9902741 OF CONTACT PAIR 
   (TREAD_TOP_SURFACE,ROAD_MASTER_SURFACE)
   MAX. CONTACT FORCE ERROR -256.370E-09   AT NODE 9902741 OF CONTACT PAIR 
   (TREAD_TOP_SURFACE,ROAD_MASTER_SURFACE)
          THE CONTACT CONSTRAINTS HAVE CONVERGED.

 AVERAGE FORCE                       11.7       TIME AVG. FORCE        11.7    
 LARGEST SCALED RESIDUAL FORCE      7.270E-05   AT NODE    8902021   DOF  3
  CORRESPONDING RESIDUAL FORCE      7.270E-05
 LARGEST INCREMENT OF DISP.         -2.52       AT NODE     402728   DOF  3
 LARGEST CORRECTION TO DISP.       -1.682E-03   AT NODE    9802270   DOF  2
          THE FORCE     EQUILIBRIUM EQUATIONS HAVE CONVERGED

 AVERAGE MOMENT                     5.894E+03   TIME AVG. MOMENT      5.894E+03
 ALL MOMENT    RESIDUALS ARE ZERO
 LARGEST INCREMENT OF ROTATION     -7.842E-32   AT NODE          2   DOF  4
 LARGEST CORRECTION TO ROTATION     4.218E-36   AT NODE          2   DOF  4
          THE MOMENT    EQUILIBRIUM EQUATIONS HAVE CONVERGED

 COMPATIBILITY ERRORS:
    TYPE                NUMBER EXCEEDING TOLERANCE  MAXIMUM ERROR        IN ELEMENT
 VOLUMETRIC                          0               -2.295E-09            9702287

 ITERATION SUMMARY FOR THE INCREMENT:   5 TOTAL ITERATIONS, OF WHICH
   3 ARE SEVERE DISCONTINUITY ITERATIONS AND  2 ARE EQUILIBRIUM ITERATIONS.

 TIME INCREMENT COMPLETED  0.100    ,  FRACTION OF STEP COMPLETED  0.100    
 STEP TIME COMPLETED       0.100    ,  TOTAL TIME COMPLETED         2.10    


  INCREMENT     2 STARTS. ATTEMPT NUMBER  1, TIME INCREMENT  0.100    
 
	UNSYMMETRIC PURE THREAD-BASED DIRECT SPARSE SOLVER RUNNING ON
 	1 HOST x 1 MPI RANK PER HOST x 8 THREADS PER RANK
        NUMBER OF EQUATIONS:  292018
        NUMBER OF RHS:        1
        NUMBER OF FLOPS:      8.762e+11
        SOLVER ELAPSED TIME:  3.3s

                   55 SEVERE DISCONTINUITIES OCCURRED DURING THIS ITERATION.
                   55 POINTS CHANGED FROM OPEN TO CLOSED

               CONVERGENCE CHECKS FOR SEVERE DISCONTINUITY ITERATION     1

   MAX. PENETRATION ERROR 289.990E-03   AT NODE 202741 OF CONTACT PAIR 
   (TREAD_TOP_SURFACE,ROAD_MASTER_SURFACE)
   MAX. CONTACT FORCE ERROR 107.301       AT NODE 202741 OF CONTACT PAIR 
   (TREAD_TOP_SURFACE,ROAD_MASTER_SURFACE)
          PENETRATION ERROR TOO LARGE COMPARED TO DISPLACEMENT INCREMENT.

 AVERAGE FORCE                       11.7       TIME AVG. FORCE        11.7    
 LARGEST SCALED RESIDUAL FORCE       52.4       AT NODE          3   DOF  3
  CORRESPONDING RESIDUAL FORCE       52.4    
 LARGEST INCREMENT OF DISP.         -2.64       AT NODE     302270   DOF  3
 LARGEST CORRECTION TO DISP.       -0.732       AT NODE    9902741   DOF  3
          FORCE     EQUILIBRIUM NOT ACHIEVED WITHIN TOLERANCE.

 AVERAGE MOMENT                     5.765E+03   TIME AVG. MOMENT      5.830E+03
 ALL MOMENT    RESIDUALS ARE ZERO
 LARGEST INCREMENT OF ROTATION     -9.984E-32   AT NODE          2   DOF  4
 LARGEST CORRECTION TO ROTATION    -2.142E-32   AT NODE          2   DOF  4
          THE MOMENT    EQUILIBRIUM EQUATIONS HAVE CONVERGED

 COMPATIBILITY ERRORS:
    TYPE                NUMBER EXCEEDING TOLERANCE  MAXIMUM ERROR        IN ELEMENT
 VOLUMETRIC                       1197               -3.131E-03            9902281
 
	UNSYMMETRIC PURE THREAD-BASED DIRECT SPARSE SOLVER RUNNING ON
 	1 HOST x 1 MPI RANK PER HOST x 8 THREADS PER RANK
        NUMBER OF EQUATIONS:  292018
        NUMBER OF RHS:        1
        NUMBER OF FLOPS:      8.767e+11
        SOLVER ELAPSED TIME:  3.8s

                   12 SEVERE DISCONTINUITIES OCCURRED DURING THIS ITERATION.
                   12 POINTS CHANGED FROM CLOSED TO OPEN

               CONVERGENCE CHECKS FOR SEVERE DISCONTINUITY ITERATION     2

   MAX. PENETRATION ERROR 1.29765E-03 AT NODE 202741 OF CONTACT PAIR 
   (TREAD_TOP_SURFACE,ROAD_MASTER_SURFACE)
   MAX. CONTACT FORCE ERROR -3.24377     AT NODE 502308 OF CONTACT PAIR 
   (TREAD_TOP_SURFACE,ROAD_MASTER_SURFACE)
          THE CONTACT CONSTRAINT ERRORS ARE WITHIN THE TOLERANCES.

 AVERAGE FORCE                       11.7       TIME AVG. FORCE        11.7    
 LARGEST SCALED RESIDUAL FORCE       39.6       AT NODE          3   DOF  3
  CORRESPONDING RESIDUAL FORCE       39.6    
 LARGEST INCREMENT OF DISP.         -2.43       AT NODE    9702270   DOF  3
 LARGEST CORRECTION TO DISP.       -0.405       AT NODE     202741   DOF  3
          FORCE     EQUILIBRIUM NOT ACHIEVED WITHIN TOLERANCE.

 AVERAGE MOMENT                     5.801E+03   TIME AVG. MOMENT      5.848E+03
 ALL MOMENT    RESIDUALS ARE ZERO
 LARGEST INCREMENT OF ROTATION     -9.978E-32   AT NODE          2   DOF  4
 LARGEST CORRECTION TO ROTATION     2.179E-34   AT NODE          3   DOF  4
          THE MOMENT    EQUILIBRIUM EQUATIONS HAVE CONVERGED

 COMPATIBILITY ERRORS:
    TYPE                NUMBER EXCEEDING TOLERANCE  MAXIMUM ERROR        IN ELEMENT
 VOLUMETRIC                        510               -1.267E-03             202281
 
	UNSYMMETRIC PURE THREAD-BASED DIRECT SPARSE SOLVER RUNNING ON
 	1 HOST x 1 MPI RANK PER HOST x 8 THREADS PER RANK
        NUMBER OF EQUATIONS:  292018
        NUMBER OF RHS:        1
        NUMBER OF FLOPS:      8.766e+11
        SOLVER ELAPSED TIME:  3.8s

                    3 SEVERE DISCONTINUITIES OCCURRED DURING THIS ITERATION.
                    3 POINTS CHANGED FROM CLOSED TO OPEN

               CONVERGENCE CHECKS FOR SEVERE DISCONTINUITY ITERATION     3

   MAX. PENETRATION ERROR -52.4042E-06  AT NODE 402270 OF CONTACT PAIR 
   (TREAD_TOP_SURFACE,ROAD_MASTER_SURFACE)
   MAX. CONTACT FORCE ERROR -137.050E-03   AT NODE 602721 OF CONTACT PAIR 
   (TREAD_TOP_SURFACE,ROAD_MASTER_SURFACE)
          THE CONTACT CONSTRAINT ERRORS ARE WITHIN THE TOLERANCES.

 AVERAGE FORCE                       11.7       TIME AVG. FORCE        11.7    
 LARGEST SCALED RESIDUAL FORCE      0.434       AT NODE          3   DOF  3
  CORRESPONDING RESIDUAL FORCE      0.434    
 LARGEST INCREMENT OF DISP.         -2.43       AT NODE    9702270   DOF  3
 LARGEST CORRECTION TO DISP.       -0.148       AT NODE     502270   DOF  3
          FORCE     EQUILIBRIUM NOT ACHIEVED WITHIN TOLERANCE.

 AVERAGE MOMENT                     5.813E+03   TIME AVG. MOMENT      5.854E+03
 ALL MOMENT    RESIDUALS ARE ZERO
 LARGEST INCREMENT OF ROTATION     -9.963E-32   AT NODE          2   DOF  4
 LARGEST CORRECTION TO ROTATION     1.452E-34   AT NODE          2   DOF  4
          THE MOMENT    EQUILIBRIUM EQUATIONS HAVE CONVERGED

 COMPATIBILITY ERRORS:
    TYPE                NUMBER EXCEEDING TOLERANCE  MAXIMUM ERROR        IN ELEMENT
 VOLUMETRIC                          9               -3.609E-05             402281
 
	UNSYMMETRIC PURE THREAD-BASED DIRECT SPARSE SOLVER RUNNING ON
 	1 HOST x 1 MPI RANK PER HOST x 8 THREADS PER RANK
        NUMBER OF EQUATIONS:  292018
        NUMBER OF RHS:        1
        NUMBER OF FLOPS:      8.766e+11
        SOLVER ELAPSED TIME:  4.0s

               CONVERGENCE CHECKS FOR EQUILIBRIUM ITERATION     1

   MAX. PENETRATION ERROR -16.9129E-09  AT NODE 502233 OF CONTACT PAIR 
   (TREAD_TOP_SURFACE,ROAD_MASTER_SURFACE)
   MAX. CONTACT FORCE ERROR -5.23336E-06 AT NODE 602720 OF CONTACT PAIR 
   (TREAD_TOP_SURFACE,ROAD_MASTER_SURFACE)
          THE CONTACT CONSTRAINTS HAVE CONVERGED.

 AVERAGE FORCE                       11.7       TIME AVG. FORCE        11.7    
 LARGEST SCALED RESIDUAL FORCE     -5.350E-04   AT NODE    9802282   DOF  1
  CORRESPONDING RESIDUAL FORCE     -5.350E-04
 LARGEST INCREMENT OF DISP.         -2.43       AT NODE    9702270   DOF  3
 LARGEST CORRECTION TO DISP.       -4.393E-03   AT NODE     402692   DOF  3
          THE FORCE     EQUILIBRIUM EQUATIONS HAVE CONVERGED

 AVERAGE MOMENT                     5.814E+03   TIME AVG. MOMENT      5.854E+03
 ALL MOMENT    RESIDUALS ARE ZERO
 LARGEST INCREMENT OF ROTATION     -9.964E-32   AT NODE          2   DOF  4
 LARGEST CORRECTION TO ROTATION    -3.966E-36   AT NODE          3   DOF  5
          THE MOMENT    EQUILIBRIUM RESPONSE WAS LINEAR IN THIS INCREMENT

 COMPATIBILITY ERRORS:
    TYPE                NUMBER EXCEEDING TOLERANCE  MAXIMUM ERROR        IN ELEMENT
 VOLUMETRIC                          0               -6.299E-08             402665
          TIME INCREMENT MAY NOW INCREASE TO    0.150    

 ITERATION SUMMARY FOR THE INCREMENT:   4 TOTAL ITERATIONS, OF WHICH
   3 ARE SEVERE DISCONTINUITY ITERATIONS AND  1 ARE EQUILIBRIUM ITERATIONS.

 TIME INCREMENT COMPLETED  0.100    ,  FRACTION OF STEP COMPLETED  0.200    
 STEP TIME COMPLETED       0.200    ,  TOTAL TIME COMPLETED         2.20    


  INCREMENT     3 STARTS. ATTEMPT NUMBER  1, TIME INCREMENT  0.150    
   UNIAXIAL CONSTRAINT COULD NOT BE SATISFIED FOR ELEMENT 300050. THE PROBLEM 
   MAY BE CAUSED BY LARGE STRAIN INCREMENTS. A SMALLER TIME INCREMENT WILL BE 
   USED.

                   18 SEVERE DISCONTINUITIES OCCURRED DURING INCREMENT ATTEMPT INITIALIZATION.
                   18 POINTS CHANGED TO SLIPPING WITH NEGATIVE CPRESS
 
	UNSYMMETRIC PURE THREAD-BASED DIRECT SPARSE SOLVER RUNNING ON
 	1 HOST x 1 MPI RANK PER HOST x 8 THREADS PER RANK
        NUMBER OF EQUATIONS:  292018
        NUMBER OF RHS:        1
        NUMBER OF FLOPS:      8.766e+11
        SOLVER ELAPSED TIME:  4.0s

                  125 SEVERE DISCONTINUITIES OCCURRED DURING THIS ITERATION.
                  106 POINTS CHANGED FROM OPEN TO CLOSED
                   19 POINTS CHANGED FROM CLOSED TO OPEN

               CONVERGENCE CHECKS FOR SEVERE DISCONTINUITY ITERATION     1

   MAX. PENETRATION ERROR 505.787E-03   AT NODE 2742 OF CONTACT PAIR 
   (TREAD_TOP_SURFACE,ROAD_MASTER_SURFACE)
   MAX. CONTACT FORCE ERROR 183.158       AT NODE 2742 OF CONTACT PAIR 
   (TREAD_TOP_SURFACE,ROAD_MASTER_SURFACE)
          PENETRATION ERROR TOO LARGE COMPARED TO DISPLACEMENT INCREMENT.

 AVERAGE FORCE                       11.6       TIME AVG. FORCE        11.7    
 LARGEST SCALED RESIDUAL FORCE       100.       AT NODE          3   DOF  3
  CORRESPONDING RESIDUAL FORCE       100.    
 LARGEST INCREMENT OF DISP.         -3.84       AT NODE    9602270   DOF  3
 LARGEST CORRECTION TO DISP.       -0.710       AT NODE    9602692   DOF  3
          FORCE     EQUILIBRIUM NOT ACHIEVED WITHIN TOLERANCE.

 AVERAGE MOMENT                     5.553E+03   TIME AVG. MOMENT      5.754E+03
 ALL MOMENT    RESIDUALS ARE ZERO
 LARGEST INCREMENT OF ROTATION     -1.300E-31   AT NODE          2   DOF  4
 LARGEST CORRECTION TO ROTATION     1.944E-32   AT NODE          2   DOF  4
          THE MOMENT    EQUILIBRIUM EQUATIONS HAVE CONVERGED

 COMPATIBILITY ERRORS:
    TYPE                NUMBER EXCEEDING TOLERANCE  MAXIMUM ERROR        IN ELEMENT
[...]
 ALL MOMENT    RESIDUALS ARE ZERO
 LARGEST INCREMENT OF ROTATION     -2.109E-31   AT NODE          2   DOF  4
 LARGEST CORRECTION TO ROTATION    -3.089E-35   AT NODE          3   DOF  5
          THE MOMENT    EQUILIBRIUM EQUATIONS HAVE CONVERGED

 COMPATIBILITY ERRORS:
    TYPE                NUMBER EXCEEDING TOLERANCE  MAXIMUM ERROR        IN ELEMENT
 VOLUMETRIC                          3               -1.673E-05             802245
 
	UNSYMMETRIC PURE THREAD-BASED DIRECT SPARSE SOLVER RUNNING ON
 	1 HOST x 1 MPI RANK PER HOST x 8 THREADS PER RANK
        NUMBER OF EQUATIONS:  291982
        NUMBER OF RHS:        1
        NUMBER OF FLOPS:      9.207e+11
        SOLVER ELAPSED TIME:  4.9s

               CONVERGENCE CHECKS FOR EQUILIBRIUM ITERATION     1

   MAX. PENETRATION ERROR -2.20092E-06 AT NODE 9802464 OF CONTACT PAIR 
   (UPPER_RIM_SLAVE_SURFACE,UPPER_RIM_MASTER_SURFACE)
   MAX. CONTACT FORCE ERROR -805.811E-06   AT NODE 9802464 OF CONTACT PAIR 
   (UPPER_RIM_SLAVE_SURFACE,UPPER_RIM_MASTER_SURFACE)
          THE CONTACT CONSTRAINTS HAVE CONVERGED.

 AVERAGE FORCE                       11.9       TIME AVG. FORCE        11.7    
 LARGEST SCALED RESIDUAL FORCE     -2.839E-02   AT NODE    9802464   DOF  3
  CORRESPONDING RESIDUAL FORCE     -2.839E-02
 LARGEST INCREMENT OF DISP.         -1.53       AT NODE    9202701   DOF  3
 LARGEST CORRECTION TO DISP.       -6.391E-03   AT NODE    9802464   DOF  2
          THE FORCE     EQUILIBRIUM EQUATIONS HAVE CONVERGED

 AVERAGE MOMENT                     5.323E+03   TIME AVG. MOMENT      5.563E+03
 ALL MOMENT    RESIDUALS ARE ZERO
 LARGEST INCREMENT OF ROTATION     -2.109E-31   AT NODE          2   DOF  4
 LARGEST CORRECTION TO ROTATION    -3.673E-36   AT NODE          1   DOF  4
          THE MOMENT    EQUILIBRIUM RESPONSE WAS LINEAR IN THIS INCREMENT

 COMPATIBILITY ERRORS:
    TYPE                NUMBER EXCEEDING TOLERANCE  MAXIMUM ERROR        IN ELEMENT
 VOLUMETRIC                          0                2.936E-07            9702404
          TIME INCREMENT MAY NOW INCREASE TO    0.107    

 ITERATION SUMMARY FOR THE INCREMENT:   4 TOTAL ITERATIONS, OF WHICH
   3 ARE SEVERE DISCONTINUITY ITERATIONS AND  1 ARE EQUILIBRIUM ITERATIONS.

 TIME INCREMENT COMPLETED  7.119E-02,  FRACTION OF STEP COMPLETED  0.799    
 STEP TIME COMPLETED       0.799    ,  TOTAL TIME COMPLETED         2.80    


  INCREMENT    11 STARTS. ATTEMPT NUMBER  1, TIME INCREMENT  0.107    

                    5 SEVERE DISCONTINUITIES OCCURRED DURING INCREMENT ATTEMPT INITIALIZATION.
                    5 POINTS CHANGED TO SLIPPING WITH NEGATIVE CPRESS
 
	UNSYMMETRIC PURE THREAD-BASED DIRECT SPARSE SOLVER RUNNING ON
 	1 HOST x 1 MPI RANK PER HOST x 8 THREADS PER RANK
        NUMBER OF EQUATIONS:  291982
        NUMBER OF RHS:        1
        NUMBER OF FLOPS:      9.207e+11
        SOLVER ELAPSED TIME:  4.8s

                   83 SEVERE DISCONTINUITIES OCCURRED DURING THIS ITERATION.
                   78 POINTS CHANGED FROM OPEN TO CLOSED
                    5 POINTS CHANGED FROM CLOSED TO OPEN

               CONVERGENCE CHECKS FOR SEVERE DISCONTINUITY ITERATION     1

   MAX. PENETRATION ERROR 218.057E-03   AT NODE 802738 OF CONTACT PAIR 
   (TREAD_TOP_SURFACE,ROAD_MASTER_SURFACE)
   MAX. CONTACT FORCE ERROR 68.3036      AT NODE 802738 OF CONTACT PAIR 
   (TREAD_TOP_SURFACE,ROAD_MASTER_SURFACE)
          PENETRATION ERROR TOO LARGE COMPARED TO DISPLACEMENT INCREMENT.

 AVERAGE FORCE                       11.9       TIME AVG. FORCE        11.7    
 LARGEST SCALED RESIDUAL FORCE       836.       AT NODE     502097   DOF  3
  CORRESPONDING RESIDUAL FORCE       836.    
 LARGEST INCREMENT OF DISP.         -2.35       AT NODE    9102742   DOF  3
 LARGEST CORRECTION TO DISP.       -0.284       AT NODE    9702736   DOF  3
          FORCE     EQUILIBRIUM NOT ACHIEVED WITHIN TOLERANCE.

 AVERAGE MOMENT                     5.295E+03   TIME AVG. MOMENT      5.539E+03
 ALL MOMENT    RESIDUALS ARE ZERO
 LARGEST INCREMENT OF ROTATION     -2.288E-31   AT NODE          2   DOF  4
 LARGEST CORRECTION TO ROTATION     8.751E-32   AT NODE          2   DOF  4
          THE MOMENT    EQUILIBRIUM EQUATIONS HAVE CONVERGED

 COMPATIBILITY ERRORS:
    TYPE                NUMBER EXCEEDING TOLERANCE  MAXIMUM ERROR        IN ELEMENT
 VOLUMETRIC                        216               -1.053E-04            9002266
 
	UNSYMMETRIC PURE THREAD-BASED DIRECT SPARSE SOLVER RUNNING ON
 	1 HOST x 1 MPI RANK PER HOST x 8 THREADS PER RANK
        NUMBER OF EQUATIONS:  291990
        NUMBER OF RHS:        1
        NUMBER OF FLOPS:      9.323e+11
        SOLVER ELAPSED TIME:  5.4s

                   22 SEVERE DISCONTINUITIES OCCURRED DURING THIS ITERATION.
                    1 POINTS CHANGED FROM OPEN TO CLOSED
                    8 POINTS CHANGED FROM CLOSED TO OPEN
                   13 POINTS CHANGED FROM SLIPPING TO STICKING

               CONVERGENCE CHECKS FOR SEVERE DISCONTINUITY ITERATION     2

   MAX. PENETRATION ERROR 1.17244E-03 AT NODE 802738 OF CONTACT PAIR 
   (TREAD_TOP_SURFACE,ROAD_MASTER_SURFACE)
   MAX. CONTACT FORCE ERROR -3.71290     AT NODE 1002701 OF CONTACT PAIR 
   (TREAD_TOP_SURFACE,ROAD_MASTER_SURFACE)
          THE CONTACT CONSTRAINT ERRORS ARE WITHIN THE TOLERANCES.

 AVERAGE FORCE                       11.9       TIME AVG. FORCE        11.7    
 LARGEST SCALED RESIDUAL FORCE       36.1       AT NODE          3   DOF  3
  CORRESPONDING RESIDUAL FORCE       36.1    
 LARGEST INCREMENT OF DISP.         -2.25       AT NODE    9102742   DOF  3
 LARGEST CORRECTION TO DISP.       -0.317       AT NODE     802738   DOF  3
          FORCE     EQUILIBRIUM NOT ACHIEVED WITHIN TOLERANCE.

 AVERAGE MOMENT                     5.190E+03   TIME AVG. MOMENT      5.529E+03
 ALL MOMENT    RESIDUALS ARE ZERO
 LARGEST INCREMENT OF ROTATION     -2.288E-31   AT NODE          2   DOF  4
 LARGEST CORRECTION TO ROTATION     1.113E-34   AT NODE          3   DOF  5
          THE MOMENT    EQUILIBRIUM EQUATIONS HAVE CONVERGED

 COMPATIBILITY ERRORS:
    TYPE                NUMBER EXCEEDING TOLERANCE  MAXIMUM ERROR        IN ELEMENT
 VOLUMETRIC                        548               -3.308E-04            1002281
 
	UNSYMMETRIC PURE THREAD-BASED DIRECT SPARSE SOLVER RUNNING ON
 	1 HOST x 1 MPI RANK PER HOST x 8 THREADS PER RANK
        NUMBER OF EQUATIONS:  291991
        NUMBER OF RHS:        1
        NUMBER OF FLOPS:      9.322e+11
        SOLVER ELAPSED TIME:  5.1s

                    2 SEVERE DISCONTINUITIES OCCURRED DURING THIS ITERATION.
                    2 POINTS CHANGED FROM CLOSED TO OPEN

               CONVERGENCE CHECKS FOR SEVERE DISCONTINUITY ITERATION     3

   MAX. PENETRATION ERROR -151.292E-06   AT NODE 502097 OF CONTACT PAIR 
   (LOWER_RIM_SLAVE_SURFACE,LOWER_RIM_MASTER_SURFACE)
   MAX. CONTACT FORCE ERROR -130.580E-03   AT NODE 1002310 OF CONTACT PAIR 
   (TREAD_TOP_SURFACE,ROAD_MASTER_SURFACE)
          THE CONTACT CONSTRAINT ERRORS ARE WITHIN THE TOLERANCES.

 AVERAGE FORCE                       11.9       TIME AVG. FORCE        11.7    
 LARGEST SCALED RESIDUAL FORCE      -1.92       AT NODE    9602234   DOF  2
  CORRESPONDING RESIDUAL FORCE      -1.92    
 LARGEST INCREMENT OF DISP.         -2.25       AT NODE    9102742   DOF  3
 LARGEST CORRECTION TO DISP.       -0.163       AT NODE    1002270   DOF  3
          FORCE     EQUILIBRIUM NOT ACHIEVED WITHIN TOLERANCE.

 AVERAGE MOMENT                     5.192E+03   TIME AVG. MOMENT      5.530E+03
 ALL MOMENT    RESIDUALS ARE ZERO
 LARGEST INCREMENT OF ROTATION     -2.288E-31   AT NODE          2   DOF  4
 LARGEST CORRECTION TO ROTATION     9.890E-35   AT NODE          3   DOF  4
          THE MOMENT    EQUILIBRIUM EQUATIONS HAVE CONVERGED

 COMPATIBILITY ERRORS:
    TYPE                NUMBER EXCEEDING TOLERANCE  MAXIMUM ERROR        IN ELEMENT
 VOLUMETRIC                         47               -7.224E-05             902281
 
	UNSYMMETRIC PURE THREAD-BASED DIRECT SPARSE SOLVER RUNNING ON
 	1 HOST x 1 MPI RANK PER HOST x 8 THREADS PER RANK
        NUMBER OF EQUATIONS:  291990
        NUMBER OF RHS:        1
        NUMBER OF FLOPS:      9.322e+11
        SOLVER ELAPSED TIME:  4.6s

               CONVERGENCE CHECKS FOR EQUILIBRIUM ITERATION     1

   MAX. PENETRATION ERROR -8.38388E-06 AT NODE 502097 OF CONTACT PAIR 
   (LOWER_RIM_SLAVE_SURFACE,LOWER_RIM_MASTER_SURFACE)
   MAX. CONTACT FORCE ERROR -3.05648E-03 AT NODE 502097 OF CONTACT PAIR 
   (LOWER_RIM_SLAVE_SURFACE,LOWER_RIM_MASTER_SURFACE)
          THE CONTACT CONSTRAINTS HAVE CONVERGED.

 AVERAGE FORCE                       11.9       TIME AVG. FORCE        11.7    
 LARGEST SCALED RESIDUAL FORCE     -0.256       AT NODE    9602113   DOF  2
  CORRESPONDING RESIDUAL FORCE     -0.256    
 LARGEST INCREMENT OF DISP.         -2.25       AT NODE    9102742   DOF  3
 LARGEST CORRECTION TO DISP.        1.229E-02   AT NODE     502097   DOF  2
          FORCE     EQUILIBRIUM NOT ACHIEVED WITHIN TOLERANCE.

 AVERAGE MOMENT                     5.197E+03   TIME AVG. MOMENT      5.530E+03
 ALL MOMENT    RESIDUALS ARE ZERO
 LARGEST INCREMENT OF ROTATION     -2.288E-31   AT NODE          2   DOF  4
 LARGEST CORRECTION TO ROTATION    -9.313E-36   AT NODE          1   DOF  4
          THE MOMENT    EQUILIBRIUM RESPONSE WAS LINEAR IN THIS INCREMENT

 COMPATIBILITY ERRORS:
    TYPE                NUMBER EXCEEDING TOLERANCE  MAXIMUM ERROR        IN ELEMENT
 VOLUMETRIC                          0               -1.199E-06             502112
 
	UNSYMMETRIC PURE THREAD-BASED DIRECT SPARSE SOLVER RUNNING ON
 	1 HOST x 1 MPI RANK PER HOST x 8 THREADS PER RANK
        NUMBER OF EQUATIONS:  291990
        NUMBER OF RHS:        1
        NUMBER OF FLOPS:      9.322e+11
        SOLVER ELAPSED TIME:  5.2s

               CONVERGENCE CHECKS FOR EQUILIBRIUM ITERATION     2

   MAX. PENETRATION ERROR -32.0336E-09  AT NODE 502097 OF CONTACT PAIR 
   (LOWER_RIM_SLAVE_SURFACE,LOWER_RIM_MASTER_SURFACE)
   MAX. CONTACT FORCE ERROR -11.6776E-06  AT NODE 502097 OF CONTACT PAIR 
   (LOWER_RIM_SLAVE_SURFACE,LOWER_RIM_MASTER_SURFACE)
          THE CONTACT CONSTRAINTS HAVE CONVERGED.

 AVERAGE FORCE                       11.9       TIME AVG. FORCE        11.7    
 LARGEST SCALED RESIDUAL FORCE     -2.494E-03   AT NODE     502098   DOF  3
  CORRESPONDING RESIDUAL FORCE     -2.494E-03
 LARGEST INCREMENT OF DISP.         -2.25       AT NODE    9102742   DOF  3
 LARGEST CORRECTION TO DISP.       -8.147E-04   AT NODE     502097   DOF  1
          THE FORCE     EQUILIBRIUM EQUATIONS HAVE CONVERGED

 AVERAGE MOMENT                     5.196E+03   TIME AVG. MOMENT      5.530E+03
 ALL MOMENT    RESIDUALS ARE ZERO
 LARGEST INCREMENT OF ROTATION     -2.288E-31   AT NODE          2   DOF  4
 LARGEST CORRECTION TO ROTATION    -8.418E-38   AT NODE          1   DOF  4
          THE MOMENT    EQUILIBRIUM EQUATIONS HAVE CONVERGED

 COMPATIBILITY ERRORS:
    TYPE                NUMBER EXCEEDING TOLERANCE  MAXIMUM ERROR        IN ELEMENT
 VOLUMETRIC                          0                7.111E-09            9602034

 ITERATION SUMMARY FOR THE INCREMENT:   5 TOTAL ITERATIONS, OF WHICH
   3 ARE SEVERE DISCONTINUITY ITERATIONS AND  2 ARE EQUILIBRIUM ITERATIONS.

 TIME INCREMENT COMPLETED  0.107    ,  FRACTION OF STEP COMPLETED  0.906    
 STEP TIME COMPLETED       0.906    ,  TOTAL TIME COMPLETED         2.91    


  INCREMENT    12 STARTS. ATTEMPT NUMBER  1, TIME INCREMENT  9.409E-02

                    3 SEVERE DISCONTINUITIES OCCURRED DURING INCREMENT ATTEMPT INITIALIZATION.
                    3 POINTS CHANGED TO SLIPPING WITH NEGATIVE CPRESS
 
	UNSYMMETRIC PURE THREAD-BASED DIRECT SPARSE SOLVER RUNNING ON
 	1 HOST x 1 MPI RANK PER HOST x 8 THREADS PER RANK
        NUMBER OF EQUATIONS:  291990
        NUMBER OF RHS:        1
        NUMBER OF FLOPS:      9.322e+11
        SOLVER ELAPSED TIME:  5.2s

                   55 SEVERE DISCONTINUITIES OCCURRED DURING THIS ITERATION.
                   52 POINTS CHANGED FROM OPEN TO CLOSED
                    3 POINTS CHANGED FROM CLOSED TO OPEN

               CONVERGENCE CHECKS FOR SEVERE DISCONTINUITY ITERATION     1

   MAX. PENETRATION ERROR 129.822E-03   AT NODE 9002701 OF CONTACT PAIR 
   (TREAD_TOP_SURFACE,ROAD_MASTER_SURFACE)
   MAX. CONTACT FORCE ERROR 44.0185      AT NODE 1102729 OF CONTACT PAIR 
   (TREAD_TOP_SURFACE,ROAD_MASTER_SURFACE)
          PENETRATION ERROR TOO LARGE COMPARED TO DISPLACEMENT INCREMENT.

 AVERAGE FORCE                       11.9       TIME AVG. FORCE        11.8    
 LARGEST SCALED RESIDUAL FORCE       752.       AT NODE    9202097   DOF  3
  CORRESPONDING RESIDUAL FORCE       752.    
 LARGEST INCREMENT OF DISP.         -2.01       AT NODE    9102738   DOF  3
 LARGEST CORRECTION TO DISP.       -0.411       AT NODE    9102738   DOF  3
          FORCE     EQUILIBRIUM NOT ACHIEVED WITHIN TOLERANCE.

 AVERAGE MOMENT                     5.191E+03   TIME AVG. MOMENT      5.502E+03
 ALL MOMENT    RESIDUALS ARE ZERO
 LARGEST INCREMENT OF ROTATION     -2.438E-31   AT NODE          2   DOF  4
 LARGEST CORRECTION TO ROTATION    -4.223E-32   AT NODE          2   DOF  4
          THE MOMENT    EQUILIBRIUM EQUATIONS HAVE CONVERGED

 COMPATIBILITY ERRORS:
    TYPE                NUMBER EXCEEDING TOLERANCE  MAXIMUM ERROR        IN ELEMENT
 VOLUMETRIC                        451               -2.233E-04             202227
 
	UNSYMMETRIC PURE THREAD-BASED DIRECT SPARSE SOLVER RUNNING ON
 	1 HOST x 1 MPI RANK PER HOST x 8 THREADS PER RANK
        NUMBER OF EQUATIONS:  291996
        NUMBER OF RHS:        1
        NUMBER OF FLOPS:      7.339e+11
        SOLVER ELAPSED TIME:  3.9s

                   17 SEVERE DISCONTINUITIES OCCURRED DURING THIS ITERATION.
                    8 POINTS CHANGED FROM CLOSED TO OPEN
                    9 POINTS CHANGED FROM SLIPPING TO STICKING

               CONVERGENCE CHECKS FOR SEVERE DISCONTINUITY ITERATION     2

   MAX. PENETRATION ERROR 297.828E-06   AT NODE 9002701 OF CONTACT PAIR 
   (TREAD_TOP_SURFACE,ROAD_MASTER_SURFACE)
   MAX. CONTACT FORCE ERROR -849.476E-03   AT NODE 602650 OF CONTACT PAIR 
   (TREAD_TOP_SURFACE,ROAD_MASTER_SURFACE)
          THE CONTACT CONSTRAINT ERRORS ARE WITHIN THE TOLERANCES.

 AVERAGE FORCE                       11.9       TIME AVG. FORCE        11.8    
 LARGEST SCALED RESIDUAL FORCE       13.0       AT NODE          3   DOF  3
  CORRESPONDING RESIDUAL FORCE       13.0    
 LARGEST INCREMENT OF DISP.         -1.99       AT NODE    9102738   DOF  3
 LARGEST CORRECTION TO DISP.       -0.202       AT NODE    9002701   DOF  3
          FORCE     EQUILIBRIUM NOT ACHIEVED WITHIN TOLERANCE.

 AVERAGE MOMENT                     5.126E+03   TIME AVG. MOMENT      5.496E+03
 ALL MOMENT    RESIDUALS ARE ZERO
 LARGEST INCREMENT OF ROTATION     -2.436E-31   AT NODE          2   DOF  4
 LARGEST CORRECTION TO ROTATION     2.103E-34   AT NODE          2   DOF  4
          THE MOMENT    EQUILIBRIUM EQUATIONS HAVE CONVERGED

 COMPATIBILITY ERRORS:
    TYPE                NUMBER EXCEEDING TOLERANCE  MAXIMUM ERROR        IN ELEMENT
 VOLUMETRIC                        156               -7.245E-05            9002245
 
	UNSYMMETRIC PURE THREAD-BASED DIRECT SPARSE SOLVER RUNNING ON
 	1 HOST x 1 MPI RANK PER HOST x 8 THREADS PER RANK
        NUMBER OF EQUATIONS:  291996
        NUMBER OF RHS:        1
        NUMBER OF FLOPS:      7.338e+11
        SOLVER ELAPSED TIME:  3.6s

               CONVERGENCE CHECKS FOR EQUILIBRIUM ITERATION     1

   MAX. PENETRATION ERROR -48.3079E-06  AT NODE 9202097 OF CONTACT PAIR 
   (LOWER_RIM_SLAVE_SURFACE,LOWER_RIM_MASTER_SURFACE)
   MAX. CONTACT FORCE ERROR -17.6102E-03  AT NODE 9202097 OF CONTACT PAIR 
   (LOWER_RIM_SLAVE_SURFACE,LOWER_RIM_MASTER_SURFACE)
          THE CONTACT CONSTRAINTS HAVE CONVERGED.

 AVERAGE FORCE                       11.9       TIME AVG. FORCE        11.8    
 LARGEST SCALED RESIDUAL FORCE      0.794       AT NODE    9202097   DOF  1
  CORRESPONDING RESIDUAL FORCE      0.794    
 LARGEST INCREMENT OF DISP.         -1.98       AT NODE    9102738   DOF  3
 LARGEST CORRECTION TO DISP.       -6.419E-02   AT NODE    9202097   DOF  1
          FORCE     EQUILIBRIUM NOT ACHIEVED WITHIN TOLERANCE.

 AVERAGE MOMENT                     5.125E+03   TIME AVG. MOMENT      5.496E+03
 ALL MOMENT    RESIDUALS ARE ZERO
 LARGEST INCREMENT OF ROTATION     -2.436E-31   AT NODE          2   DOF  4
 LARGEST CORRECTION TO ROTATION    -1.471E-35   AT NODE          3   DOF  5
          THE MOMENT    EQUILIBRIUM RESPONSE WAS LINEAR IN THIS INCREMENT

 COMPATIBILITY ERRORS:
    TYPE                NUMBER EXCEEDING TOLERANCE  MAXIMUM ERROR        IN ELEMENT
 VOLUMETRIC                          4                1.384E-05            9102343
 
	UNSYMMETRIC PURE THREAD-BASED DIRECT SPARSE SOLVER RUNNING ON
 	1 HOST x 1 MPI RANK PER HOST x 8 THREADS PER RANK
        NUMBER OF EQUATIONS:  291996
        NUMBER OF RHS:        1
        NUMBER OF FLOPS:      7.338e+11
        SOLVER ELAPSED TIME:  3.9s

               CONVERGENCE CHECKS FOR EQUILIBRIUM ITERATION     2

   MAX. PENETRATION ERROR -1.10162E-06 AT NODE 9202097 OF CONTACT PAIR 
   (LOWER_RIM_SLAVE_SURFACE,LOWER_RIM_MASTER_SURFACE)
   MAX. CONTACT FORCE ERROR -401.390E-06   AT NODE 9202097 OF CONTACT PAIR 
   (LOWER_RIM_SLAVE_SURFACE,LOWER_RIM_MASTER_SURFACE)
          THE CONTACT CONSTRAINTS HAVE CONVERGED.

 AVERAGE FORCE                       11.9       TIME AVG. FORCE        11.8    
 LARGEST SCALED RESIDUAL FORCE      1.865E-02   AT NODE    9202097   DOF  1
  CORRESPONDING RESIDUAL FORCE      1.865E-02
 LARGEST INCREMENT OF DISP.         -1.98       AT NODE    9102738   DOF  3
 LARGEST CORRECTION TO DISP.        1.082E-02   AT NODE    9202097   DOF  1
          THE FORCE     EQUILIBRIUM EQUATIONS HAVE CONVERGED

 AVERAGE MOMENT                     5.127E+03   TIME AVG. MOMENT      5.496E+03
 ALL MOMENT    RESIDUALS ARE ZERO
 LARGEST INCREMENT OF ROTATION     -2.436E-31   AT NODE          2   DOF  4
 LARGEST CORRECTION TO ROTATION    -1.146E-36   AT NODE          1   DOF  4
          THE MOMENT    EQUILIBRIUM EQUATIONS HAVE CONVERGED

 COMPATIBILITY ERRORS:
    TYPE                NUMBER EXCEEDING TOLERANCE  MAXIMUM ERROR        IN ELEMENT
 VOLUMETRIC                          0               -3.146E-07            9102112

 ITERATION SUMMARY FOR THE INCREMENT:   4 TOTAL ITERATIONS, OF WHICH
   2 ARE SEVERE DISCONTINUITY ITERATIONS AND  2 ARE EQUILIBRIUM ITERATIONS.

 TIME INCREMENT COMPLETED  9.409E-02,  FRACTION OF STEP COMPLETED   1.00    
 STEP TIME COMPLETED        1.00    ,  TOTAL TIME COMPLETED         3.00    

     RESTART INFORMATION WRITTEN IN STEP   3  AFTER INCREMENT    12


          THE ANALYSIS HAS BEEN COMPLETED



     ANALYSIS SUMMARY:
     TOTAL OF         19  INCREMENTS
                       2  CUTBACKS IN AUTOMATIC INCREMENTATION
                      98  ITERATIONS INCLUDING CONTACT ITERATIONS IF PRESENT
                      98  PASSES THROUGH THE EQUATION SOLVER OF WHICH 
                      98  INVOLVE MATRIX DECOMPOSITION, INCLUDING
                       0  DECOMPOSITION(S) OF THE MASS MATRIX
                       1  REORDERING OF EQUATIONS TO MINIMIZE WAVEFRONT
                       0  ADDITIONAL RESIDUAL EVALUATIONS FOR LINE SEARCHES
                       0  ADDITIONAL OPERATOR EVALUATIONS FOR LINE SEARCHES
                      25  WARNING MESSAGES DURING USER INPUT PROCESSING
                       2  WARNING MESSAGES DURING ANALYSIS
                       0  ANALYSIS WARNINGS ARE NUMERICAL PROBLEM MESSAGES
                       0  ANALYSIS WARNINGS ARE NEGATIVE EIGENVALUE MESSAGES
                       0  ERROR MESSAGES



     JOB TIME SUMMARY
       USER TIME (SEC)      =     4.26E+03
       SYSTEM TIME (SEC)    =     1.16E+03
       TOTAL CPU TIME (SEC) =     5.42E+03
       WALLCLOCK TIME (SEC) =         1114
       MEMORY PEAK (GB)     =            7
