 Abaqus/Standard 2024.HF5                  DATE 16-Oct-2025 TIME 10:26:06
 SUMMARY OF JOB INFORMATION:
 STEP  INC ATT SEVERE EQUIL TOTAL  TOTAL      STEP       INC OF       DOF    IF
               DISCON ITERS ITERS  TIME/    TIME/LPF    TIME/LPF    MONITOR RIKS
               ITERS               FREQ
   1     1   1     0     2     2  1.00       1.00       1.000     
   2     1   1     0     1     1  1.10       0.100      0.1000    
   2     2   1     0     1     1  1.20       0.200      0.1000    
   2     3   1     0     1     1  1.35       0.350      0.1500    
   2     4   1     4     1     5  1.58       0.575      0.2250    
   2     5   1     5     2     7  1.91       0.913      0.3375    
   2     6   1     2     2     4  2.00       1.00       0.08750   
   3     1   1     3     2     5  2.10       0.100      0.1000    
   3     2   1     3     1     4  2.20       0.200      0.1000    
   3     3   1     3     2     5  2.35       0.350      0.1500    
   3     4   1U    4     8    12  2.35       0.350      0.2250    
   3     4   2     3     1     4  2.41       0.406      0.05625   
   3     5   1     3     1     4  2.49       0.491      0.08438   
   3     6   1     3     5     8  2.62       0.617      0.1266    
   3     7   1U    3     9    12  2.62       0.617      0.1266    
   3     7   2     2     1     3  2.65       0.649      0.03164   
   3     8   1     2     1     3  2.68       0.680      0.03164   
   3     9   1     4     0     4  2.73       0.728      0.04746   
   3    10   1     3     1     4  2.80       0.799      0.07119   
   3    11   1     3     2     5  2.91       0.906      0.1068    
   3    12   1     2     2     4  3.00       1.00       0.09409   
                          
 THE ANALYSIS HAS COMPLETED SUCCESSFULLY
