1

   Abaqus 2024.HF5                                  Date 16-Oct-2025   Time 10:44:16
   For use by APOLLO TYRES LTD under license from Dassault Systemes or its subsidiary.

 Project name:                                                                   
 4:  BRAKING                                                                     
 STEP    4     INCREMENT     1     STEP TIME    0.00    


                  S T E P       4     S T E A D Y   S T A T E   T R A N S P O R T   A N A L Y S I S


          4:  BRAKING                                                                     

     AUTOMATIC TIME CONTROL WITH -
          A SUGGESTED INITIAL TIME INCREMENT OF                0.500    
          AND A TOTAL TIME PERIOD OF                            1.00    
          THE MINIMUM TIME INCREMENT ALLOWED IS                1.000E-05
          THE MAXIMUM TIME INCREMENT ALLOWED IS                 1.00    

     INERTIA EFFECTS ARE INCLUDED IN THIS STEP.
     INERTIA STABILIZATION FACTOR =   1.00    

 CONVERGENCE TOLERANCE PARAMETERS FOR FORCE    
     CRITERION FOR RESIDUAL FORCE     FOR A NONLINEAR PROBLEM          5.000E-03
     CRITERION FOR DISP.    CORRECTION IN A NONLINEAR PROBLEM          1.000E-02
     INIT. VALUE OF TIME AVG. FORCE     IS TIME AVG. FORCE     IN PREVIOUS STEP
     AVERAGE FORCE     IS TIME AVERAGE FORCE    
     ALTERNATE CRIT. FOR RESIDUAL FORCE     FOR A NONLINEAR PROBLEM    2.000E-02
     CRITERION FOR ZERO FORCE     RELATIVE TO TIME AVRG. FORCE         1.000E-05
     CRITERION FOR RESIDUAL FORCE     WHEN THERE IS ZERO FLUX          1.000E-05
     CRITERION FOR DISP.    CORRECTION WHEN THERE IS ZERO FLUX         1.000E-03
     CRITERION FOR RESIDUAL FORCE     FOR A LINEAR INCREMENT           1.000E-08
     FIELD CONVERSION RATIO                                             1.00    
     CRITERION FOR ZERO FORCE     REL. TO TIME AVRG. MAX. FORCE        1.000E-05
     CRITERION FOR ZERO DISP.    RELATIVE TO CHARACTERISTIC LENGTH     1.000E-08

 CONVERGENCE TOLERANCE PARAMETERS FOR MOMENT   
     CRITERION FOR RESIDUAL MOMENT    FOR A NONLINEAR PROBLEM          5.000E-03
     CRITERION FOR ROTATION CORRECTION IN A NONLINEAR PROBLEM          1.000E-02
     INIT. VALUE OF TIME AVG. MOMENT    IS TIME AVG. MOMENT    IN PREVIOUS STEP
     AVERAGE MOMENT    IS TIME AVERAGE MOMENT   
     ALTERNATE CRIT. FOR RESIDUAL MOMENT    FOR A NONLINEAR PROBLEM    2.000E-02
     CRITERION FOR ZERO MOMENT    RELATIVE TO TIME AVRG. MOMENT        1.000E-05
     CRITERION FOR RESIDUAL MOMENT    WHEN THERE IS ZERO FLUX          1.000E-05
     CRITERION FOR ROTATION CORRECTION WHEN THERE IS ZERO FLUX         1.000E-03
     CRITERION FOR RESIDUAL MOMENT    FOR A LINEAR INCREMENT           1.000E-08
     FIELD CONVERSION RATIO                                             1.00    
     CRITERION FOR ZERO MOMENT    REL. TO TIME AVRG. MAX. MOMENT       1.000E-05

     VOLUMETRIC STRAIN COMPATIBILITY TOLERANCE FOR HYBRID SOLIDS       1.000E-05
     AXIAL STRAIN COMPATIBILITY TOLERANCE FOR HYBRID BEAMS             1.000E-05
     TRANS. SHEAR STRAIN COMPATIBILITY TOLERANCE FOR HYBRID BEAMS      1.000E-05
     SOFT CONTACT CONSTRAINT COMPATIBILITY TOLERANCE FOR P>P0          5.000E-03
     SOFT CONTACT CONSTRAINT COMPATIBILITY TOLERANCE FOR P=0.0         0.100    
     CONTACT FORCE ERROR TOLERANCE FOR CONVERT SDI=YES                 1.00    
     DISPLACEMENT COMPATIBILITY TOLERANCE FOR DCOUP ELEMENTS           1.000E-05
     ROTATION COMPATIBILITY TOLERANCE FOR DCOUP ELEMENTS               1.000E-05

 EQUILIBRIUM WILL BE CHECKED FOR SEVERE DISCONTINUITY ITERATIONS

 TIME INCREMENTATION CONTROL PARAMETERS:
 *** FIRST EQUILIBRIUM ITERATION FOR CONSECUTIVE DIVERGENCE CHECK              8
 *** EQUILIBRIUM ITERATION AT WHICH LOG. CONVERGENCE RATE CHECK BEGINS        10
     EQUILIBRIUM ITERATION AFTER WHICH ALTERNATE RESIDUAL IS USED              9
     MAXIMUM EQUILIBRIUM ITERATIONS ALLOWED                                   16
     EQUILIBRIUM ITERATION COUNT FOR CUT-BACK IN NEXT INCREMENT               10
     MAXIMUM EQUILIB. ITERS IN TWO INCREMENTS FOR TIME INCREMENT INCREASE      4
     MAXIMUM ITERATIONS FOR SEVERE DISCONTINUITIES                            50
     MAXIMUM ATTEMPTS ALLOWED IN AN INCREMENT                                  5
     MAXIMUM DISCON. ITERS IN TWO INCREMENTS FOR TIME INCREMENT INCREASE      50
     MAXIMUM CONTACT AUGMENTATIONS FOR *SURFACE BEHAVIOR,AUGMENTED LAGRANGE   50
     CUT-BACK FACTOR AFTER DIVERGENCE                                 0.2500    
     CUT-BACK FACTOR FOR TOO SLOW CONVERGENCE                         0.5000    
     CUT-BACK FACTOR AFTER TOO MANY EQUILIBRIUM ITERATIONS            0.7500    
     CUT-BACK FACTOR AFTER TOO MANY SEVERE DISCONTINUITY ITERATIONS   0.2500    
     CUT-BACK FACTOR AFTER PROBLEMS IN ELEMENT ASSEMBLY               0.2500    
     INCREASE FACTOR AFTER TWO INCREMENTS THAT CONVERGE QUICKLY        1.500    
     MAX. TIME INCREMENT INCREASE FACTOR ALLOWED                       1.500    
     MAX. TIME INCREMENT INCREASE FACTOR ALLOWED (DYNAMICS)            1.250    
     MAX. TIME INCREMENT INCREASE FACTOR ALLOWED (DIFFUSION)           2.000    
     MINIMUM TIME INCREMENT RATIO FOR EXTRAPOLATION TO OCCUR          0.1000    
     MAX. RATIO OF TIME INCREMENT TO STABILITY LIMIT                   1.000    
     FRACTION OF STABILITY LIMIT FOR NEW TIME INCREMENT               0.9500    
     TIME INCREMENT INCREASE FACTOR BEFORE A TIME POINT                1.000    

 *** INDICATES USE OF NON-DEFAULT TIME INCREMENTATION CONTROL PARAMETER
     SELECTED WITH *CONTROLS

 CONTACT CONTROLS APPLIED TO ALL CONTACT PAIRS:
     GLOBAL STABILIZATION CONTROL IS NOT USED

          PRINT OF INCREMENT NUMBER, TIME, ETC., EVERY    1  INCREMENTS

     RESTART FILE WILL BE WRITTEN EVERY   100  INCREMENTS

     THE MAXIMUM NUMBER OF INCREMENTS IN THIS STEP IS                     300

          LARGE DISPLACEMENT THEORY WILL BE USED

          UNSYMMETRIC MATRIX STORAGE AND SOLUTION WILL BE USED

     LINEAR EXTRAPOLATION WILL BE USED

     CHARACTERISTIC ELEMENT LENGTH      10.1    

     DETAILS REGARDING ACTUAL SOLUTION WAVEFRONT REQUESTED

     DETAILED OUTPUT OF DIAGNOSTICS TO DATABASE REQUESTED

     PRINT OF INCREMENT NUMBER, TIME, ETC., TO THE MESSAGE FILE EVERY     1  INCREMENTS

     ELEMENT OPERATIONS WILL NOT BE CARRIED OUT IN PARALLEL

     COLLECTING MODEL CONSTRAINT INFORMATION FOR OVERCONSTRAINT CHECKS

     COLLECTING STEP CONSTRAINT INFORMATION FOR OVERCONSTRAINT CHECKS


  INCREMENT     1 STARTS. ATTEMPT NUMBER  1, TIME INCREMENT  0.500    

                  565 SEVERE DISCONTINUITIES OCCURRED DURING INCREMENT ATTEMPT INITIALIZATION.
                  565 POINTS CHANGED FROM STICKING TO SLIPPING
 
	UNSYMMETRIC HYBRID DIRECT SPARSE SOLVER RUNNING ON
 	1 HOST x 1 MPI RANK PER HOST x 8 THREADS PER RANK
        NUMBER OF EQUATIONS:  291996
        NUMBER OF RHS:        1
        NUMBER OF FLOPS:      3.038e+12
        SOLVER ELAPSED TIME:  16s
   UNIAXIAL CONSTRAINT COULD NOT BE SATISFIED FOR ELEMENT 6300011. THE PROBLEM 
   MAY BE CAUSED BY LARGE STRAIN INCREMENTS. A SMALLER TIME INCREMENT WILL BE 
   USED.
   UNIAXIAL CONSTRAINT COULD NOT BE SATISFIED FOR ELEMENT 6500011. THE PROBLEM 
   MAY BE CAUSED BY LARGE STRAIN INCREMENTS. A SMALLER TIME INCREMENT WILL BE 
   USED.
   UNIAXIAL CONSTRAINT COULD NOT BE SATISFIED FOR ELEMENT 6800011. THE PROBLEM 
   MAY BE CAUSED BY LARGE STRAIN INCREMENTS. A SMALLER TIME INCREMENT WILL BE 
   USED.
   UNIAXIAL CONSTRAINT COULD NOT BE SATISFIED FOR ELEMENT 6900011. THE PROBLEM 
   MAY BE CAUSED BY LARGE STRAIN INCREMENTS. A SMALLER TIME INCREMENT WILL BE 
   USED.
   UNIAXIAL CONSTRAINT COULD NOT BE SATISFIED FOR ELEMENT 7200011. THE PROBLEM 
   MAY BE CAUSED BY LARGE STRAIN INCREMENTS. A SMALLER TIME INCREMENT WILL BE 
   USED.
   UNIAXIAL CONSTRAINT COULD NOT BE SATISFIED FOR ELEMENT 7400011. THE PROBLEM 
   MAY BE CAUSED BY LARGE STRAIN INCREMENTS. A SMALLER TIME INCREMENT WILL BE 
   USED.
   UNIAXIAL CONSTRAINT COULD NOT BE SATISFIED FOR ELEMENT 7500011. THE PROBLEM 
   MAY BE CAUSED BY LARGE STRAIN INCREMENTS. A SMALLER TIME INCREMENT WILL BE 
   USED.
   UNIAXIAL CONSTRAINT COULD NOT BE SATISFIED FOR ELEMENT 7600011. THE PROBLEM 
   MAY BE CAUSED BY LARGE STRAIN INCREMENTS. A SMALLER TIME INCREMENT WILL BE 
   USED.
   UNIAXIAL CONSTRAINT COULD NOT BE SATISFIED FOR ELEMENT 7700011. THE PROBLEM 
   MAY BE CAUSED BY LARGE STRAIN INCREMENTS. A SMALLER TIME INCREMENT WILL BE 
   USED.
   UNIAXIAL CONSTRAINT COULD NOT BE SATISFIED FOR ELEMENT 7800011. THE PROBLEM 
   MAY BE CAUSED BY LARGE STRAIN INCREMENTS. A SMALLER TIME INCREMENT WILL BE 
   USED.
   UNIAXIAL CONSTRAINT COULD NOT BE SATISFIED FOR ELEMENT 7900011. THE PROBLEM 
   MAY BE CAUSED BY LARGE STRAIN INCREMENTS. A SMALLER TIME INCREMENT WILL BE 
   USED.
   UNIAXIAL CONSTRAINT COULD NOT BE SATISFIED FOR ELEMENT 8000011. THE PROBLEM 
   MAY BE CAUSED BY LARGE STRAIN INCREMENTS. A SMALLER TIME INCREMENT WILL BE 
   USED.
   UNIAXIAL CONSTRAINT COULD NOT BE SATISFIED FOR ELEMENT 8100011. THE PROBLEM 
   MAY BE CAUSED BY LARGE STRAIN INCREMENTS. A SMALLER TIME INCREMENT WILL BE 
   USED.
   UNIAXIAL CONSTRAINT COULD NOT BE SATISFIED FOR ELEMENT 8200011. THE PROBLEM 
   MAY BE CAUSED BY LARGE STRAIN INCREMENTS. A SMALLER TIME INCREMENT WILL BE 
   USED.
   UNIAXIAL CONSTRAINT COULD NOT BE SATISFIED FOR ELEMENT 8400011. THE PROBLEM 
   MAY BE CAUSED BY LARGE STRAIN INCREMENTS. A SMALLER TIME INCREMENT WILL BE 
   USED.
   UNIAXIAL CONSTRAINT COULD NOT BE SATISFIED FOR ELEMENT 8500011. THE PROBLEM 
   MAY BE CAUSED BY LARGE STRAIN INCREMENTS. A SMALLER TIME INCREMENT WILL BE 
   USED.
   UNIAXIAL CONSTRAINT COULD NOT BE SATISFIED FOR ELEMENT 8600011. THE PROBLEM 
   MAY BE CAUSED BY LARGE STRAIN INCREMENTS. A SMALLER TIME INCREMENT WILL BE 
   USED.
   UNIAXIAL CONSTRAINT COULD NOT BE SATISFIED FOR ELEMENT 6100012. THE PROBLEM 
   MAY BE CAUSED BY LARGE STRAIN INCREMENTS. A SMALLER TIME INCREMENT WILL BE 
   USED.
   UNIAXIAL CONSTRAINT COULD NOT BE SATISFIED FOR ELEMENT 6300012. THE PROBLEM 
   MAY BE CAUSED BY LARGE STRAIN INCREMENTS. A SMALLER TIME INCREMENT WILL BE 
   USED.
   UNIAXIAL CONSTRAINT COULD NOT BE SATISFIED FOR ELEMENT 6400012. THE PROBLEM 
   MAY BE CAUSED BY LARGE STRAIN INCREMENTS. A SMALLER TIME INCREMENT WILL BE 
   USED.
   UNIAXIAL CONSTRAINT COULD NOT BE SATISFIED FOR ELEMENT 6500012. THE PROBLEM 
   MAY BE CAUSED BY LARGE STRAIN INCREMENTS. A SMALLER TIME INCREMENT WILL BE 
   USED.
   UNIAXIAL CONSTRAINT COULD NOT BE SATISFIED FOR ELEMENT 6600012. THE PROBLEM 
   MAY BE CAUSED BY LARGE STRAIN INCREMENTS. A SMALLER TIME INCREMENT WILL BE 
   USED.
   UNIAXIAL CONSTRAINT COULD NOT BE SATISFIED FOR ELEMENT 6700012. THE PROBLEM 
   MAY BE CAUSED BY LARGE STRAIN INCREMENTS. A SMALLER TIME INCREMENT WILL BE 
   USED.
   UNIAXIAL CONSTRAINT COULD NOT BE SATISFIED FOR ELEMENT 6800012. THE PROBLEM 
   MAY BE CAUSED BY LARGE STRAIN INCREMENTS. A SMALLER TIME INCREMENT WILL BE 
   USED.
   UNIAXIAL CONSTRAINT COULD NOT BE SATISFIED FOR ELEMENT 6900012. THE PROBLEM 
   MAY BE CAUSED BY LARGE STRAIN INCREMENTS. A SMALLER TIME INCREMENT WILL BE 
   USED.
   UNIAXIAL CONSTRAINT COULD NOT BE SATISFIED FOR ELEMENT 7000012. THE PROBLEM 
   MAY BE CAUSED BY LARGE STRAIN INCREMENTS. A SMALLER TIME INCREMENT WILL BE 
   USED.
   UNIAXIAL CONSTRAINT COULD NOT BE SATISFIED FOR ELEMENT 7100012. THE PROBLEM 
   MAY BE CAUSED BY LARGE STRAIN INCREMENTS. A SMALLER TIME INCREMENT WILL BE 
   USED.
   UNIAXIAL CONSTRAINT COULD NOT BE SATISFIED FOR ELEMENT 7200012. THE PROBLEM 
   MAY BE CAUSED BY LARGE STRAIN INCREMENTS. A SMALLER TIME INCREMENT WILL BE 
   USED.
   UNIAXIAL CONSTRAINT COULD NOT BE SATISFIED FOR ELEMENT 7300012. THE PROBLEM 
   MAY BE CAUSED BY LARGE STRAIN INCREMENTS. A SMALLER TIME INCREMENT WILL BE 
   USED.
   UNIAXIAL CONSTRAINT COULD NOT BE SATISFIED FOR ELEMENT 7400012. THE PROBLEM 
   MAY BE CAUSED BY LARGE STRAIN INCREMENTS. A SMALLER TIME INCREMENT WILL BE 
   USED.
   UNIAXIAL CONSTRAINT COULD NOT BE SATISFIED FOR ELEMENT 7500012. THE PROBLEM 
   MAY BE CAUSED BY LARGE STRAIN INCREMENTS. A SMALLER TIME INCREMENT WILL BE 
   USED.
   UNIAXIAL CONSTRAINT COULD NOT BE SATISFIED FOR ELEMENT 7600012. THE PROBLEM 
   MAY BE CAUSED BY LARGE STRAIN INCREMENTS. A SMALLER TIME INCREMENT WILL BE 
   USED.
   UNIAXIAL CONSTRAINT COULD NOT BE SATISFIED FOR ELEMENT 7700012. THE PROBLEM 
   MAY BE CAUSED BY LARGE STRAIN INCREMENTS. A SMALLER TIME INCREMENT WILL BE 
   USED.
   UNIAXIAL CONSTRAINT COULD NOT BE SATISFIED FOR ELEMENT 6300013. THE PROBLEM 
   MAY BE CAUSED BY LARGE STRAIN INCREMENTS. A SMALLER TIME INCREMENT WILL BE 
   USED.
   UNIAXIAL CONSTRAINT COULD NOT BE SATISFIED FOR ELEMENT 6400013. THE PROBLEM 
   MAY BE CAUSED BY LARGE STRAIN INCREMENTS. A SMALLER TIME INCREMENT WILL BE 
   USED.
   UNIAXIAL CONSTRAINT COULD NOT BE SATISFIED FOR ELEMENT 6600013. THE PROBLEM 
   MAY BE CAUSED BY LARGE STRAIN INCREMENTS. A SMALLER TIME INCREMENT WILL BE 
   USED.
   UNIAXIAL CONSTRAINT COULD NOT BE SATISFIED FOR ELEMENT 6700013. THE PROBLEM 
   MAY BE CAUSED BY LARGE STRAIN INCREMENTS. A SMALLER TIME INCREMENT WILL BE 
   USED.
   UNIAXIAL CONSTRAINT COULD NOT BE SATISFIED FOR ELEMENT 6800013. THE PROBLEM 
   MAY BE CAUSED BY LARGE STRAIN INCREMENTS. A SMALLER TIME INCREMENT WILL BE 
   USED.
   UNIAXIAL CONSTRAINT COULD NOT BE SATISFIED FOR ELEMENT 7000013. THE PROBLEM 
   MAY BE CAUSED BY LARGE STRAIN INCREMENTS. A SMALLER TIME INCREMENT WILL BE 
   USED.
   UNIAXIAL CONSTRAINT COULD NOT BE SATISFIED FOR ELEMENT 7200013. THE PROBLEM 
   MAY BE CAUSED BY LARGE STRAIN INCREMENTS. A SMALLER TIME INCREMENT WILL BE 
   USED.
   UNIAXIAL CONSTRAINT COULD NOT BE SATISFIED FOR ELEMENT 7300013. THE PROBLEM 
   MAY BE CAUSED BY LARGE STRAIN INCREMENTS. A SMALLER TIME INCREMENT WILL BE 
   USED.
   UNIAXIAL CONSTRAINT COULD NOT BE SATISFIED FOR ELEMENT 7400013. THE PROBLEM 
   MAY BE CAUSED BY LARGE STRAIN INCREMENTS. A SMALLER TIME INCREMENT WILL BE 
   USED.
   UNIAXIAL CONSTRAINT COULD NOT BE SATISFIED FOR ELEMENT 6300014. THE PROBLEM 
   MAY BE CAUSED BY LARGE STRAIN INCREMENTS. A SMALLER TIME INCREMENT WILL BE 
   USED.
   UNIAXIAL CONSTRAINT COULD NOT BE SATISFIED FOR ELEMENT 6400014. THE PROBLEM 
   MAY BE CAUSED BY LARGE STRAIN INCREMENTS. A SMALLER TIME INCREMENT WILL BE 
   USED.
   UNIAXIAL CONSTRAINT COULD NOT BE SATISFIED FOR ELEMENT 6600014. THE PROBLEM 
   MAY BE CAUSED BY LARGE STRAIN INCREMENTS. A SMALLER TIME INCREMENT WILL BE 
   USED.
   UNIAXIAL CONSTRAINT COULD NOT BE SATISFIED FOR ELEMENT 6800014. THE PROBLEM 
   MAY BE CAUSED BY LARGE STRAIN INCREMENTS. A SMALLER TIME INCREMENT WILL BE 
   USED.
   UNIAXIAL CONSTRAINT COULD NOT BE SATISFIED FOR ELEMENT 7000014. THE PROBLEM 
   MAY BE CAUSED BY LARGE STRAIN INCREMENTS. A SMALLER TIME INCREMENT WILL BE 
   USED.
   UNIAXIAL CONSTRAINT COULD NOT BE SATISFIED FOR ELEMENT 7100014. THE PROBLEM 
   MAY BE CAUSED BY LARGE STRAIN INCREMENTS. A SMALLER TIME INCREMENT WILL BE 
   USED.
   UNIAXIAL CONSTRAINT COULD NOT BE SATISFIED FOR ELEMENT 7200014. THE PROBLEM 
   MAY BE CAUSED BY LARGE STRAIN INCREMENTS. A SMALLER TIME INCREMENT WILL BE 
   USED.
   UNIAXIAL CONSTRAINT COULD NOT BE SATISFIED FOR ELEMENT 6300015. THE PROBLEM 
   MAY BE CAUSED BY LARGE STRAIN INCREMENTS. A SMALLER TIME INCREMENT WILL BE 
   USED.
   UNIAXIAL CONSTRAINT COULD NOT BE SATISFIED FOR ELEMENT 6400015. THE PROBLEM 
   MAY BE CAUSED BY LARGE STRAIN INCREMENTS. A SMALLER TIME INCREMENT WILL BE 
   USED.
   UNIAXIAL CONSTRAINT COULD NOT BE SATISFIED FOR ELEMENT 6500015. THE PROBLEM 
   MAY BE CAUSED BY LARGE STRAIN INCREMENTS. A SMALLER TIME INCREMENT WILL BE 
   USED.
   UNIAXIAL CONSTRAINT COULD NOT BE SATISFIED FOR ELEMENT 6600015. THE PROBLEM 
   MAY BE CAUSED BY LARGE STRAIN INCREMENTS. A SMALLER TIME INCREMENT WILL BE 
   USED.
   UNIAXIAL CONSTRAINT COULD NOT BE SATISFIED FOR ELEMENT 6800015. THE PROBLEM 
   MAY BE CAUSED BY LARGE STRAIN INCREMENTS. A SMALLER TIME INCREMENT WILL BE 
   USED.
   UNIAXIAL CONSTRAINT COULD NOT BE SATISFIED FOR ELEMENT 6900015. THE PROBLEM 
   MAY BE CAUSED BY LARGE STRAIN INCREMENTS. A SMALLER TIME INCREMENT WILL BE 
   USED.
   UNIAXIAL CONSTRAINT COULD NOT BE SATISFIED FOR ELEMENT 7100015. THE PROBLEM 
   MAY BE CAUSED BY LARGE STRAIN INCREMENTS. A SMALLER TIME INCREMENT WILL BE 
   USED.
   UNIAXIAL CONSTRAINT COULD NOT BE SATISFIED FOR ELEMENT 6400016. THE PROBLEM 
   MAY BE CAUSED BY LARGE STRAIN INCREMENTS. A SMALLER TIME INCREMENT WILL BE 
   USED.
   UNIAXIAL CONSTRAINT COULD NOT BE SATISFIED FOR ELEMENT 6500016. THE PROBLEM 
   MAY BE CAUSED BY LARGE STRAIN INCREMENTS. A SMALLER TIME INCREMENT WILL BE 
   USED.
   UNIAXIAL CONSTRAINT COULD NOT BE SATISFIED FOR ELEMENT 6600016. THE PROBLEM 
   MAY BE CAUSED BY LARGE STRAIN INCREMENTS. A SMALLER TIME INCREMENT WILL BE 
   USED.
   UNIAXIAL CONSTRAINT COULD NOT BE SATISFIED FOR ELEMENT 6400071. THE PROBLEM 
   MAY BE CAUSED BY LARGE STRAIN INCREMENTS. A SMALLER TIME INCREMENT WILL BE 
   USED.
   UNIAXIAL CONSTRAINT COULD NOT BE SATISFIED FOR ELEMENT 6500071. THE PROBLEM 
   MAY BE CAUSED BY LARGE STRAIN INCREMENTS. A SMALLER TIME INCREMENT WILL BE 
   USED.
   UNIAXIAL CONSTRAINT COULD NOT BE SATISFIED FOR ELEMENT 6600071. THE PROBLEM 
   MAY BE CAUSED BY LARGE STRAIN INCREMENTS. A SMALLER TIME INCREMENT WILL BE 
   USED.
   UNIAXIAL CONSTRAINT COULD NOT BE SATISFIED FOR ELEMENT 6800071. THE PROBLEM 
   MAY BE CAUSED BY LARGE STRAIN INCREMENTS. A SMALLER TIME INCREMENT WILL BE 
   USED.
   UNIAXIAL CONSTRAINT COULD NOT BE SATISFIED FOR ELEMENT 6900071. THE PROBLEM 
   MAY BE CAUSED BY LARGE STRAIN INCREMENTS. A SMALLER TIME INCREMENT WILL BE 
   USED.
   UNIAXIAL CONSTRAINT COULD NOT BE SATISFIED FOR ELEMENT 6300072. THE PROBLEM 
   MAY BE CAUSED BY LARGE STRAIN INCREMENTS. A SMALLER TIME INCREMENT WILL BE 
   USED.
   UNIAXIAL CONSTRAINT COULD NOT BE SATISFIED FOR ELEMENT 6500072. THE PROBLEM 
   MAY BE CAUSED BY LARGE STRAIN INCREMENTS. A SMALLER TIME INCREMENT WILL BE 
   USED.
   UNIAXIAL CONSTRAINT COULD NOT BE SATISFIED FOR ELEMENT 6700072. THE PROBLEM 
   MAY BE CAUSED BY LARGE STRAIN INCREMENTS. A SMALLER TIME INCREMENT WILL BE 
   USED.
   UNIAXIAL CONSTRAINT COULD NOT BE SATISFIED FOR ELEMENT 6900072. THE PROBLEM 
   MAY BE CAUSED BY LARGE STRAIN INCREMENTS. A SMALLER TIME INCREMENT WILL BE 
   USED.
   UNIAXIAL CONSTRAINT COULD NOT BE SATISFIED FOR ELEMENT 7000072. THE PROBLEM 
   MAY BE CAUSED BY LARGE STRAIN INCREMENTS. A SMALLER TIME INCREMENT WILL BE 
   USED.
   UNIAXIAL CONSTRAINT COULD NOT BE SATISFIED FOR ELEMENT 7100072. THE PROBLEM 
   MAY BE CAUSED BY LARGE STRAIN INCREMENTS. A SMALLER TIME INCREMENT WILL BE 
   USED.
   UNIAXIAL CONSTRAINT COULD NOT BE SATISFIED FOR ELEMENT 6400073. THE PROBLEM 
   MAY BE CAUSED BY LARGE STRAIN INCREMENTS. A SMALLER TIME INCREMENT WILL BE 
   USED.
   UNIAXIAL CONSTRAINT COULD NOT BE SATISFIED FOR ELEMENT 6500073. THE PROBLEM 
   MAY BE CAUSED BY LARGE STRAIN INCREMENTS. A SMALLER TIME INCREMENT WILL BE 
   USED.
   UNIAXIAL CONSTRAINT COULD NOT BE SATISFIED FOR ELEMENT 6700073. THE PROBLEM 
   MAY BE CAUSED BY LARGE STRAIN INCREMENTS. A SMALLER TIME INCREMENT WILL BE 
   USED.
   UNIAXIAL CONSTRAINT COULD NOT BE SATISFIED FOR ELEMENT 6800073. THE PROBLEM 
   MAY BE CAUSED BY LARGE STRAIN INCREMENTS. A SMALLER TIME INCREMENT WILL BE 
   USED.
   UNIAXIAL CONSTRAINT COULD NOT BE SATISFIED FOR ELEMENT 7000073. THE PROBLEM 
   MAY BE CAUSED BY LARGE STRAIN INCREMENTS. A SMALLER TIME INCREMENT WILL BE 
   USED.
   UNIAXIAL CONSTRAINT COULD NOT BE SATISFIED FOR ELEMENT 7100073. THE PROBLEM 
   MAY BE CAUSED BY LARGE STRAIN INCREMENTS. A SMALLER TIME INCREMENT WILL BE 
   USED.
   UNIAXIAL CONSTRAINT COULD NOT BE SATISFIED FOR ELEMENT 7200073. THE PROBLEM 
   MAY BE CAUSED BY LARGE STRAIN INCREMENTS. A SMALLER TIME INCREMENT WILL BE 
   USED.
   UNIAXIAL CONSTRAINT COULD NOT BE SATISFIED FOR ELEMENT 7300073. THE PROBLEM 
   MAY BE CAUSED BY LARGE STRAIN INCREMENTS. A SMALLER TIME INCREMENT WILL BE 
   USED.
   UNIAXIAL CONSTRAINT COULD NOT BE SATISFIED FOR ELEMENT 7400073. THE PROBLEM 
   MAY BE CAUSED BY LARGE STRAIN INCREMENTS. A SMALLER TIME INCREMENT WILL BE 
   USED.
   UNIAXIAL CONSTRAINT COULD NOT BE SATISFIED FOR ELEMENT 6400074. THE PROBLEM 
   MAY BE CAUSED BY LARGE STRAIN INCREMENTS. A SMALLER TIME INCREMENT WILL BE 
   USED.
   UNIAXIAL CONSTRAINT COULD NOT BE SATISFIED FOR ELEMENT 6500074. THE PROBLEM 
   MAY BE CAUSED BY LARGE STRAIN INCREMENTS. A SMALLER TIME INCREMENT WILL BE 
   USED.
   UNIAXIAL CONSTRAINT COULD NOT BE SATISFIED FOR ELEMENT 6700074. THE PROBLEM 
   MAY BE CAUSED BY LARGE STRAIN INCREMENTS. A SMALLER TIME INCREMENT WILL BE 
   USED.
   UNIAXIAL CONSTRAINT COULD NOT BE SATISFIED FOR ELEMENT 6800074. THE PROBLEM 
   MAY BE CAUSED BY LARGE STRAIN INCREMENTS. A SMALLER TIME INCREMENT WILL BE 
   USED.
   UNIAXIAL CONSTRAINT COULD NOT BE SATISFIED FOR ELEMENT 6900074. THE PROBLEM 
   MAY BE CAUSED BY LARGE STRAIN INCREMENTS. A SMALLER TIME INCREMENT WILL BE 
   USED.
   UNIAXIAL CONSTRAINT COULD NOT BE SATISFIED FOR ELEMENT 7000074. THE PROBLEM 
   MAY BE CAUSED BY LARGE STRAIN INCREMENTS. A SMALLER TIME INCREMENT WILL BE 
   USED.
   UNIAXIAL CONSTRAINT COULD NOT BE SATISFIED FOR ELEMENT 7100074. THE PROBLEM 
   MAY BE CAUSED BY LARGE STRAIN INCREMENTS. A SMALLER TIME INCREMENT WILL BE 
   USED.

                  193 SEVERE DISCONTINUITIES OCCURRED DURING THIS ITERATION.
                   13 POINTS CHANGED FROM OPEN TO CLOSED
                   29 POINTS CHANGED FROM CLOSED TO OPEN
                  117 POINTS CHANGED FROM SLIPPING TO STICKING
                   34 POINTS CHANGED FROM STICKING TO SLIPPING

               CONVERGENCE CHECKS FOR SEVERE DISCONTINUITY ITERATION     1

   MAX. PENETRATION ERROR 102.171E-03   AT NODE 9002270 OF CONTACT PAIR 
   (TREAD_TOP_SURFACE,ROAD_MASTER_SURFACE)
   MAX. CONTACT FORCE ERROR 29.6519      AT NODE 9002738 OF CONTACT PAIR 
   (TREAD_TOP_SURFACE,ROAD_MASTER_SURFACE)
          PENETRATION ERROR TOO LARGE COMPARED TO DISPLACEMENT INCREMENT.

 AVERAGE FORCE                       14.4       TIME AVG. FORCE        14.4    
 LARGEST SCALED RESIDUAL FORCE      1.130E+03   AT NODE    6302245   DOF  3
  CORRESPONDING RESIDUAL FORCE      1.130E+03
 LARGEST INCREMENT OF DISP.          14.9       AT NODE       2742   DOF  1
 LARGEST CORRECTION TO DISP.         14.9       AT NODE       2742   DOF  1
          FORCE     EQUILIBRIUM NOT ACHIEVED WITHIN TOLERANCE.

 AVERAGE MOMENT                     4.837E+03   TIME AVG. MOMENT      4.837E+03
 ALL MOMENT    RESIDUALS ARE ZERO
 LARGEST INCREMENT OF ROTATION      6.965E-31   AT NODE          2   DOF  5
 LARGEST CORRECTION TO ROTATION     6.965E-31   AT NODE          2   DOF  5
          THE MOMENT    EQUILIBRIUM EQUATIONS HAVE CONVERGED

 COMPATIBILITY ERRORS:
    TYPE                NUMBER EXCEEDING TOLERANCE  MAXIMUM ERROR        IN ELEMENT
 VOLUMETRIC                      57011               -2.648E-02            6502167
 
	UNSYMMETRIC HYBRID DIRECT SPARSE SOLVER RUNNING ON
 	1 HOST x 1 MPI RANK PER HOST x 8 THREADS PER RANK
        NUMBER OF EQUATIONS:  291988
        NUMBER OF RHS:        1
        NUMBER OF FLOPS:      3.042e+12
        SOLVER ELAPSED TIME:  16s
 

 ***WARNING: THE SYSTEM MATRIX HAS 6 NEGATIVE EIGENVALUES.

     NEGATIVE EIGENVALUES MEAN THAT THE SYSTEM MATRIX IS NOT 
     POSITIVE DEFINITE:
     FOR EXAMPLE, A BIFURCATION (BUCKLING) LOAD MAY HAVE BEEN EXCEEDED.

                  110 SEVERE DISCONTINUITIES OCCURRED DURING THIS ITERATION.
                    3 POINTS CHANGED FROM OPEN TO CLOSED
                   15 POINTS CHANGED FROM CLOSED TO OPEN
                   74 POINTS CHANGED FROM SLIPPING TO STICKING
                   18 POINTS CHANGED FROM STICKING TO SLIPPING

               CONVERGENCE CHECKS FOR SEVERE DISCONTINUITY ITERATION     2

   MAX. PENETRATION ERROR 4.13846E-03 AT NODE 1502408 OF CONTACT PAIR 
   (UPPER_RIM_SLAVE_SURFACE,UPPER_RIM_MASTER_SURFACE)
   MAX. CONTACT FORCE ERROR -1.58517     AT NODE 8902701 OF CONTACT PAIR 
   (TREAD_TOP_SURFACE,ROAD_MASTER_SURFACE)
          THE ESTIMATED CONTACT FORCE ERROR IS OUTSIDE OF CONVERGENCE TOLERANCES.

 AVERAGE FORCE                       11.8       TIME AVG. FORCE        11.8    
 LARGEST SCALED RESIDUAL FORCE       99.2       AT NODE    9502742   DOF  2
  CORRESPONDING RESIDUAL FORCE       99.2    
 LARGEST INCREMENT OF DISP.          13.4       AT NODE     102742   DOF  1
 LARGEST CORRECTION TO DISP.        -2.78       AT NODE    9402729   DOF  1
          FORCE     EQUILIBRIUM NOT ACHIEVED WITHIN TOLERANCE.

 AVERAGE MOMENT                     4.798E+03   TIME AVG. MOMENT      4.798E+03
 ALL MOMENT    RESIDUALS ARE ZERO
 LARGEST INCREMENT OF ROTATION      5.837E-31   AT NODE          2   DOF  5
 LARGEST CORRECTION TO ROTATION    -1.166E-31   AT NODE          1   DOF  5
          THE MOMENT    EQUILIBRIUM EQUATIONS HAVE CONVERGED

 COMPATIBILITY ERRORS:
    TYPE                NUMBER EXCEEDING TOLERANCE  MAXIMUM ERROR        IN ELEMENT
 VOLUMETRIC                      31969               -5.667E-03            9402281
 
	UNSYMMETRIC HYBRID DIRECT SPARSE SOLVER RUNNING ON
 	1 HOST x 1 MPI RANK PER HOST x 8 THREADS PER RANK
        NUMBER OF EQUATIONS:  291985
        NUMBER OF RHS:        1
        NUMBER OF FLOPS:      3.038e+12
        SOLVER ELAPSED TIME:  16s

                   93 SEVERE DISCONTINUITIES OCCURRED DURING THIS ITERATION.
                   16 POINTS CHANGED FROM OPEN TO CLOSED
                    5 POINTS CHANGED FROM CLOSED TO OPEN
                   66 POINTS CHANGED FROM SLIPPING TO STICKING
                    6 POINTS CHANGED FROM STICKING TO SLIPPING

               CONVERGENCE CHECKS FOR SEVERE DISCONTINUITY ITERATION     3

   MAX. PENETRATION ERROR 38.2636E-03  AT NODE 602736 OF CONTACT PAIR 
   (TREAD_TOP_SURFACE,ROAD_MASTER_SURFACE)
   MAX. CONTACT FORCE ERROR 10.7906      AT NODE 802227 OF CONTACT PAIR 
   (TREAD_TOP_SURFACE,ROAD_MASTER_SURFACE)
          THE ESTIMATED CONTACT FORCE ERROR IS OUTSIDE OF CONVERGENCE TOLERANCES.

 AVERAGE FORCE                       12.0       TIME AVG. FORCE        12.0    
 LARGEST SCALED RESIDUAL FORCE      -195.       AT NODE    6502225   DOF  2
  CORRESPONDING RESIDUAL FORCE      -195.    
 LARGEST INCREMENT OF DISP.          11.2       AT NODE     202742   DOF  1
 LARGEST CORRECTION TO DISP.        -3.11       AT NODE    9502308   DOF  1
          FORCE     EQUILIBRIUM NOT ACHIEVED WITHIN TOLERANCE.

 AVERAGE MOMENT                     4.766E+03   TIME AVG. MOMENT      4.766E+03
 ALL MOMENT    RESIDUALS ARE ZERO
 LARGEST INCREMENT OF ROTATION      5.084E-31   AT NODE          2   DOF  5
 LARGEST CORRECTION TO ROTATION    -7.534E-32   AT NODE          2   DOF  5
          THE MOMENT    EQUILIBRIUM EQUATIONS HAVE CONVERGED

 COMPATIBILITY ERRORS:
    TYPE                NUMBER EXCEEDING TOLERANCE  MAXIMUM ERROR        IN ELEMENT
 VOLUMETRIC                      40642               -2.542E-03            9302266
 
	UNSYMMETRIC HYBRID DIRECT SPARSE SOLVER RUNNING ON
 	1 HOST x 1 MPI RANK PER HOST x 8 THREADS PER RANK
        NUMBER OF EQUATIONS:  291996
        NUMBER OF RHS:        1
        NUMBER OF FLOPS:      3.038e+12
        SOLVER ELAPSED TIME:  16s

                   34 SEVERE DISCONTINUITIES OCCURRED DURING THIS ITERATION.
                    1 POINTS CHANGED FROM OPEN TO CLOSED
                    8 POINTS CHANGED FROM CLOSED TO OPEN
                   21 POINTS CHANGED FROM SLIPPING TO STICKING
                    4 POINTS CHANGED FROM STICKING TO SLIPPING

               CONVERGENCE CHECKS FOR SEVERE DISCONTINUITY ITERATION     4

   MAX. PENETRATION ERROR 8.73760E-03 AT NODE 8902729 OF CONTACT PAIR 
   (TREAD_TOP_SURFACE,ROAD_MASTER_SURFACE)
   MAX. CONTACT FORCE ERROR 3.11530     AT NODE 8902729 OF CONTACT PAIR 
   (TREAD_TOP_SURFACE,ROAD_MASTER_SURFACE)
          THE ESTIMATED CONTACT FORCE ERROR IS OUTSIDE OF CONVERGENCE TOLERANCES.

 AVERAGE FORCE                       12.0       TIME AVG. FORCE        12.0    
 LARGEST SCALED RESIDUAL FORCE       80.5       AT NODE    6402248   DOF  2
  CORRESPONDING RESIDUAL FORCE       80.5    
 LARGEST INCREMENT OF DISP.          11.3       AT NODE     302742   DOF  1
 LARGEST CORRECTION TO DISP.        0.600       AT NODE    9802730   DOF  2
          FORCE     EQUILIBRIUM NOT ACHIEVED WITHIN TOLERANCE.

 AVERAGE MOMENT                     4.775E+03   TIME AVG. MOMENT      4.775E+03
 ALL MOMENT    RESIDUALS ARE ZERO
 LARGEST INCREMENT OF ROTATION      5.057E-31   AT NODE          2   DOF  5
 LARGEST CORRECTION TO ROTATION    -4.303E-33   AT NODE          1   DOF  4
          THE MOMENT    EQUILIBRIUM EQUATIONS HAVE CONVERGED

 COMPATIBILITY ERRORS:
    TYPE                NUMBER EXCEEDING TOLERANCE  MAXIMUM ERROR        IN ELEMENT
 VOLUMETRIC                       7296                1.432E-03            9702264
 
	UNSYMMETRIC HYBRID DIRECT SPARSE SOLVER RUNNING ON
 	1 HOST x 1 MPI RANK PER HOST x 8 THREADS PER RANK
        NUMBER OF EQUATIONS:  291989
        NUMBER OF RHS:        1
        NUMBER OF FLOPS:      3.038e+12
        SOLVER ELAPSED TIME:  16s

                   13 SEVERE DISCONTINUITIES OCCURRED DURING THIS ITERATION.
                    5 POINTS CHANGED FROM OPEN TO CLOSED
                    3 POINTS CHANGED FROM SLIPPING TO STICKING
                    5 POINTS CHANGED FROM STICKING TO SLIPPING

               CONVERGENCE CHECKS FOR SEVERE DISCONTINUITY ITERATION     5

   MAX. PENETRATION ERROR 3.28935E-03 AT NODE 8402035 OF CONTACT PAIR 
   (LOWER_RIM_SLAVE_SURFACE,LOWER_RIM_MASTER_SURFACE)
   MAX. CONTACT FORCE ERROR 553.100E-03   AT NODE 8402035 OF CONTACT PAIR 
   (LOWER_RIM_SLAVE_SURFACE,LOWER_RIM_MASTER_SURFACE)
          THE CONTACT CONSTRAINT ERRORS ARE WITHIN THE TOLERANCES.

 AVERAGE FORCE                       12.1       TIME AVG. FORCE        12.1    
 LARGEST SCALED RESIDUAL FORCE      -232.       AT NODE    6502225   DOF  2
  CORRESPONDING RESIDUAL FORCE      -232.    
 LARGEST INCREMENT OF DISP.          11.3       AT NODE     302742   DOF  1
 LARGEST CORRECTION TO DISP.        0.241       AT NODE    9902730   DOF  2
          FORCE     EQUILIBRIUM NOT ACHIEVED WITHIN TOLERANCE.

 AVERAGE MOMENT                     4.764E+03   TIME AVG. MOMENT      4.764E+03
 ALL MOMENT    RESIDUALS ARE ZERO
 LARGEST INCREMENT OF ROTATION      5.040E-31   AT NODE          2   DOF  5
 LARGEST CORRECTION TO ROTATION    -1.904E-33   AT NODE          1   DOF  5
          THE MOMENT    EQUILIBRIUM EQUATIONS HAVE CONVERGED

 COMPATIBILITY ERRORS:
    TYPE                NUMBER EXCEEDING TOLERANCE  MAXIMUM ERROR        IN ELEMENT
 VOLUMETRIC                       2480               -4.151E-04             102525
 
	UNSYMMETRIC HYBRID DIRECT SPARSE SOLVER RUNNING ON
 	1 HOST x 1 MPI RANK PER HOST x 8 THREADS PER RANK
        NUMBER OF EQUATIONS:  291994
        NUMBER OF RHS:        1
        NUMBER OF FLOPS:      3.038e+12
        SOLVER ELAPSED TIME:  16s

                    6 SEVERE DISCONTINUITIES OCCURRED DURING THIS ITERATION.
                    5 POINTS CHANGED FROM CLOSED TO OPEN
                    1 POINTS CHANGED FROM STICKING TO SLIPPING

               CONVERGENCE CHECKS FOR SEVERE DISCONTINUITY ITERATION     6

   MAX. PENETRATION ERROR -456.119E-09   AT NODE 602097 OF CONTACT PAIR 
   (LOWER_RIM_SLAVE_SURFACE,LOWER_RIM_MASTER_SURFACE)
   MAX. CONTACT FORCE ERROR -10.1653E-03  AT NODE 8502035 OF CONTACT PAIR 
   (LOWER_RIM_SLAVE_SURFACE,LOWER_RIM_MASTER_SURFACE)
          THE CONTACT CONSTRAINT ERRORS ARE WITHIN THE TOLERANCES.

 AVERAGE FORCE                       12.0       TIME AVG. FORCE        12.0    
 LARGEST SCALED RESIDUAL FORCE      -75.6       AT NODE    6502260   DOF  2
  CORRESPONDING RESIDUAL FORCE      -75.6    
 LARGEST INCREMENT OF DISP.          11.2       AT NODE     302742   DOF  1
 LARGEST CORRECTION TO DISP.       -0.160       AT NODE     802166   DOF  3
          FORCE     EQUILIBRIUM NOT ACHIEVED WITHIN TOLERANCE.

 AVERAGE MOMENT                     4.774E+03   TIME AVG. MOMENT      4.774E+03
 ALL MOMENT    RESIDUALS ARE ZERO
 LARGEST INCREMENT OF ROTATION      5.037E-31   AT NODE          2   DOF  5
 LARGEST CORRECTION TO ROTATION    -3.835E-34   AT NODE          2   DOF  5
          THE MOMENT    EQUILIBRIUM EQUATIONS HAVE CONVERGED

 COMPATIBILITY ERRORS:
    TYPE                NUMBER EXCEEDING TOLERANCE  MAXIMUM ERROR        IN ELEMENT
 VOLUMETRIC                       1737                4.730E-04             702025
 
	UNSYMMETRIC HYBRID DIRECT SPARSE SOLVER RUNNING ON
 	1 HOST x 1 MPI RANK PER HOST x 8 THREADS PER RANK
        NUMBER OF EQUATIONS:  291989
        NUMBER OF RHS:        1
        NUMBER OF FLOPS:      3.038e+12
        SOLVER ELAPSED TIME:  16s

                    4 SEVERE DISCONTINUITIES OCCURRED DURING THIS ITERATION.
                    4 POINTS CHANGED FROM OPEN TO CLOSED

               CONVERGENCE CHECKS FOR SEVERE DISCONTINUITY ITERATION     7

   MAX. PENETRATION ERROR 3.45612E-03 AT NODE 8402035 OF CONTACT PAIR 
   (LOWER_RIM_SLAVE_SURFACE,LOWER_RIM_MASTER_SURFACE)
   MAX. CONTACT FORCE ERROR 581.180E-03   AT NODE 8402035 OF CONTACT PAIR 
   (LOWER_RIM_SLAVE_SURFACE,LOWER_RIM_MASTER_SURFACE)
          THE CONTACT CONSTRAINT ERRORS ARE WITHIN THE TOLERANCES.

 AVERAGE FORCE                       12.1       TIME AVG. FORCE        12.1    
 LARGEST SCALED RESIDUAL FORCE      -232.       AT NODE    6502225   DOF  2
  CORRESPONDING RESIDUAL FORCE      -232.    
 LARGEST INCREMENT OF DISP.          11.2       AT NODE     302742   DOF  1
 LARGEST CORRECTION TO DISP.        0.145       AT NODE     802171   DOF  3
          FORCE     EQUILIBRIUM NOT ACHIEVED WITHIN TOLERANCE.

 AVERAGE MOMENT                     4.766E+03   TIME AVG. MOMENT      4.766E+03
 ALL MOMENT    RESIDUALS ARE ZERO
 LARGEST INCREMENT OF ROTATION      5.035E-31   AT NODE          2   DOF  5
 LARGEST CORRECTION TO ROTATION    -2.065E-34   AT NODE          1   DOF  4
          THE MOMENT    EQUILIBRIUM EQUATIONS HAVE CONVERGED

 COMPATIBILITY ERRORS:
    TYPE                NUMBER EXCEEDING TOLERANCE  MAXIMUM ERROR        IN ELEMENT
 VOLUMETRIC                       1352                5.102E-04             702025
 
	UNSYMMETRIC HYBRID DIRECT SPARSE SOLVER RUNNING ON
 	1 HOST x 1 MPI RANK PER HOST x 8 THREADS PER RANK
        NUMBER OF EQUATIONS:  291993
        NUMBER OF RHS:        1
        NUMBER OF FLOPS:      3.038e+12
        SOLVER ELAPSED TIME:  16s

                    4 SEVERE DISCONTINUITIES OCCURRED DURING THIS ITERATION.
                    3 POINTS CHANGED FROM CLOSED TO OPEN
                    1 POINTS CHANGED FROM SLIPPING TO STICKING

               CONVERGENCE CHECKS FOR SEVERE DISCONTINUITY ITERATION     8

   MAX. PENETRATION ERROR -460.997E-09   AT NODE 602097 OF CONTACT PAIR 
   (LOWER_RIM_SLAVE_SURFACE,LOWER_RIM_MASTER_SURFACE)
   MAX. CONTACT FORCE ERROR -10.0159E-03  AT NODE 8502035 OF CONTACT PAIR 
   (LOWER_RIM_SLAVE_SURFACE,LOWER_RIM_MASTER_SURFACE)
          THE CONTACT CONSTRAINT ERRORS ARE WITHIN THE TOLERANCES.

 AVERAGE FORCE                       12.0       TIME AVG. FORCE        12.0    
 LARGEST SCALED RESIDUAL FORCE      -75.7       AT NODE    6502260   DOF  2
  CORRESPONDING RESIDUAL FORCE      -75.7    
 LARGEST INCREMENT OF DISP.          11.2       AT NODE     302742   DOF  1
 LARGEST CORRECTION TO DISP.       -0.140       AT NODE     802171   DOF  3
          FORCE     EQUILIBRIUM NOT ACHIEVED WITHIN TOLERANCE.

 AVERAGE MOMENT                     4.774E+03   TIME AVG. MOMENT      4.774E+03
 ALL MOMENT    RESIDUALS ARE ZERO
 LARGEST INCREMENT OF ROTATION      5.035E-31   AT NODE          2   DOF  5
 LARGEST CORRECTION TO ROTATION     2.464E-34   AT NODE          1   DOF  4
          THE MOMENT    EQUILIBRIUM EQUATIONS HAVE CONVERGED

 COMPATIBILITY ERRORS:
    TYPE                NUMBER EXCEEDING TOLERANCE  MAXIMUM ERROR        IN ELEMENT
 VOLUMETRIC                       1337                4.873E-04             702025
 
	UNSYMMETRIC HYBRID DIRECT SPARSE SOLVER RUNNING ON
 	1 HOST x 1 MPI RANK PER HOST x 8 THREADS PER RANK
        NUMBER OF EQUATIONS:  291990
        NUMBER OF RHS:        1
        NUMBER OF FLOPS:      3.038e+12
        SOLVER ELAPSED TIME:  16s

                    1 SEVERE DISCONTINUITIES OCCURRED DURING THIS ITERATION.
                    1 POINTS CHANGED FROM OPEN TO CLOSED

               CONVERGENCE CHECKS FOR SEVERE DISCONTINUITY ITERATION     9

   MAX. PENETRATION ERROR 2.97140E-03 AT NODE 8402035 OF CONTACT PAIR 
   (LOWER_RIM_SLAVE_SURFACE,LOWER_RIM_MASTER_SURFACE)
   MAX. CONTACT FORCE ERROR 499.637E-03   AT NODE 8402035 OF CONTACT PAIR 
   (LOWER_RIM_SLAVE_SURFACE,LOWER_RIM_MASTER_SURFACE)
          THE CONTACT CONSTRAINT ERRORS ARE WITHIN THE TOLERANCES.

 AVERAGE FORCE                       12.1       TIME AVG. FORCE        12.1    
 LARGEST SCALED RESIDUAL FORCE      -232.       AT NODE    6502225   DOF  2
  CORRESPONDING RESIDUAL FORCE      -232.    
 LARGEST INCREMENT OF DISP.          11.2       AT NODE     302742   DOF  1
 LARGEST CORRECTION TO DISP.        0.143       AT NODE     802171   DOF  3
          FORCE     EQUILIBRIUM NOT ACHIEVED WITHIN TOLERANCE.

 AVERAGE MOMENT                     4.769E+03   TIME AVG. MOMENT      4.769E+03
 ALL MOMENT    RESIDUALS ARE ZERO
 LARGEST INCREMENT OF ROTATION      5.035E-31   AT NODE          2   DOF  5
 LARGEST CORRECTION TO ROTATION    -2.382E-34   AT NODE          1   DOF  4
          THE MOMENT    EQUILIBRIUM EQUATIONS HAVE CONVERGED

 COMPATIBILITY ERRORS:
    TYPE                NUMBER EXCEEDING TOLERANCE  MAXIMUM ERROR        IN ELEMENT
 VOLUMETRIC                       1252                4.898E-04             702025
 
	UNSYMMETRIC HYBRID DIRECT SPARSE SOLVER RUNNING ON
 	1 HOST x 1 MPI RANK PER HOST x 8 THREADS PER RANK
        NUMBER OF EQUATIONS:  291991
        NUMBER OF RHS:        1
        NUMBER OF FLOPS:      3.038e+12
        SOLVER ELAPSED TIME:  16s

                    1 SEVERE DISCONTINUITIES OCCURRED DURING THIS ITERATION.
                    1 POINTS CHANGED FROM CLOSED TO OPEN

               CONVERGENCE CHECKS FOR SEVERE DISCONTINUITY ITERATION    10

   MAX. PENETRATION ERROR -498.720E-09   AT NODE 602097 OF CONTACT PAIR 
   (LOWER_RIM_SLAVE_SURFACE,LOWER_RIM_MASTER_SURFACE)
   MAX. CONTACT FORCE ERROR -3.16116E-03 AT NODE 8402035 OF CONTACT PAIR 
   (LOWER_RIM_SLAVE_SURFACE,LOWER_RIM_MASTER_SURFACE)
          THE CONTACT CONSTRAINT ERRORS ARE WITHIN THE TOLERANCES.

 AVERAGE FORCE                       12.0       TIME AVG. FORCE        12.0    
 LARGEST SCALED RESIDUAL FORCE      -75.6       AT NODE    6502260   DOF  2
  CORRESPONDING RESIDUAL FORCE      -75.6    
 LARGEST INCREMENT OF DISP.          11.2       AT NODE     302742   DOF  1
 LARGEST CORRECTION TO DISP.       -0.146       AT NODE     802171   DOF  3
          FORCE     EQUILIBRIUM NOT ACHIEVED WITHIN TOLERANCE.

 AVERAGE MOMENT                     4.774E+03   TIME AVG. MOMENT      4.774E+03
 ALL MOMENT    RESIDUALS ARE ZERO
 LARGEST INCREMENT OF ROTATION      5.035E-31   AT NODE          2   DOF  5
 LARGEST CORRECTION TO ROTATION     2.320E-34   AT NODE          1   DOF  4
          THE MOMENT    EQUILIBRIUM EQUATIONS HAVE CONVERGED

 COMPATIBILITY ERRORS:
    TYPE                NUMBER EXCEEDING TOLERANCE  MAXIMUM ERROR        IN ELEMENT
 VOLUMETRIC                       1201                4.821E-04             702025
 
	UNSYMMETRIC HYBRID DIRECT SPARSE SOLVER RUNNING ON
 	1 HOST x 1 MPI RANK PER HOST x 8 THREADS PER RANK
        NUMBER OF EQUATIONS:  291990
        NUMBER OF RHS:        1
        NUMBER OF FLOPS:      3.038e+12
        SOLVER ELAPSED TIME:  16s

                    1 SEVERE DISCONTINUITIES OCCURRED DURING THIS ITERATION.
                    1 POINTS CHANGED FROM OPEN TO CLOSED

               CONVERGENCE CHECKS FOR SEVERE DISCONTINUITY ITERATION    11

   MAX. PENETRATION ERROR 1.59275E-03 AT NODE 8402035 OF CONTACT PAIR 
   (LOWER_RIM_SLAVE_SURFACE,LOWER_RIM_MASTER_SURFACE)
   MAX. CONTACT FORCE ERROR 267.734E-03   AT NODE 8402035 OF CONTACT PAIR 
   (LOWER_RIM_SLAVE_SURFACE,LOWER_RIM_MASTER_SURFACE)
          THE CONTACT CONSTRAINT ERRORS ARE WITHIN THE TOLERANCES.

 AVERAGE FORCE                       12.1       TIME AVG. FORCE        12.1    
 LARGEST SCALED RESIDUAL FORCE      -232.       AT NODE    6502225   DOF  2
  CORRESPONDING RESIDUAL FORCE      -232.    
 LARGEST INCREMENT OF DISP.          11.2       AT NODE     302742   DOF  1
 LARGEST CORRECTION TO DISP.        0.139       AT NODE     802171   DOF  3
          FORCE     EQUILIBRIUM NOT ACHIEVED WITHIN TOLERANCE.

 AVERAGE MOMENT                     4.770E+03   TIME AVG. MOMENT      4.770E+03
 ALL MOMENT    RESIDUALS ARE ZERO
 LARGEST INCREMENT OF ROTATION      5.035E-31   AT NODE          2   DOF  5
 LARGEST CORRECTION TO ROTATION    -2.369E-34   AT NODE          1   DOF  4
          THE MOMENT    EQUILIBRIUM EQUATIONS HAVE CONVERGED

 COMPATIBILITY ERRORS:
    TYPE                NUMBER EXCEEDING TOLERANCE  MAXIMUM ERROR        IN ELEMENT
 VOLUMETRIC                       1137                4.766E-04             702025
 

 ***NOTE: THE SOLUTION APPEARS TO BE DIVERGING. CONVERGENCE IS JUDGED UNLIKELY.


  INCREMENT     1 STARTS. ATTEMPT NUMBER  2, TIME INCREMENT  0.125    

                  565 SEVERE DISCONTINUITIES OCCURRED DURING INCREMENT ATTEMPT INITIALIZATION.
                  565 POINTS CHANGED FROM STICKING TO SLIPPING
 
	UNSYMMETRIC HYBRID DIRECT SPARSE SOLVER RUNNING ON
 	1 HOST x 1 MPI RANK PER HOST x 8 THREADS PER RANK
        NUMBER OF EQUATIONS:  291996
        NUMBER OF RHS:        1
        NUMBER OF FLOPS:      3.038e+12
        SOLVER ELAPSED TIME:  16s

                   56 SEVERE DISCONTINUITIES OCCURRED DURING THIS ITERATION.
                    4 POINTS CHANGED FROM OPEN TO CLOSED
                   10 POINTS CHANGED FROM CLOSED TO OPEN
                   37 POINTS CHANGED FROM SLIPPING TO STICKING
                    5 POINTS CHANGED FROM STICKING TO SLIPPING

               CONVERGENCE CHECKS FOR SEVERE DISCONTINUITY ITERATION     1

   MAX. PENETRATION ERROR 29.3870E-03  AT NODE 9002738 OF CONTACT PAIR 
   (TREAD_TOP_SURFACE,ROAD_MASTER_SURFACE)
   MAX. CONTACT FORCE ERROR 9.15374     AT NODE 9002738 OF CONTACT PAIR 
   (TREAD_TOP_SURFACE,ROAD_MASTER_SURFACE)
          PENETRATION ERROR TOO LARGE COMPARED TO DISPLACEMENT INCREMENT.

 AVERAGE FORCE                       11.8       TIME AVG. FORCE        11.8    
 LARGEST SCALED RESIDUAL FORCE       275.       AT NODE    8902464   DOF  3
  CORRESPONDING RESIDUAL FORCE       275.    
 LARGEST INCREMENT OF DISP.          3.62       AT NODE       2742   DOF  1
 LARGEST CORRECTION TO DISP.         3.62       AT NODE       2742   DOF  1
          FORCE     EQUILIBRIUM NOT ACHIEVED WITHIN TOLERANCE.

 AVERAGE MOMENT                     4.726E+03   TIME AVG. MOMENT      4.726E+03
 ALL MOMENT    RESIDUALS ARE ZERO
 LARGEST INCREMENT OF ROTATION     -2.521E-31   AT NODE          2   DOF  4
 LARGEST CORRECTION TO ROTATION    -2.521E-31   AT NODE          2   DOF  4
          THE MOMENT    EQUILIBRIUM EQUATIONS HAVE CONVERGED

 COMPATIBILITY ERRORS:
    TYPE                NUMBER EXCEEDING TOLERANCE  MAXIMUM ERROR        IN ELEMENT
 VOLUMETRIC                      44179               -1.572E-03            6502143
 
	UNSYMMETRIC HYBRID DIRECT SPARSE SOLVER RUNNING ON
 	1 HOST x 1 MPI RANK PER HOST x 8 THREADS PER RANK
        NUMBER OF EQUATIONS:  291995
        NUMBER OF RHS:        1
        NUMBER OF FLOPS:      3.038e+12
        SOLVER ELAPSED TIME:  16s

                   14 SEVERE DISCONTINUITIES OCCURRED DURING THIS ITERATION.
                    1 POINTS CHANGED FROM CLOSED TO OPEN
                    7 POINTS CHANGED FROM SLIPPING TO STICKING
                    6 POINTS CHANGED FROM STICKING TO SLIPPING

               CONVERGENCE CHECKS FOR SEVERE DISCONTINUITY ITERATION     2

   MAX. PENETRATION ERROR 15.3267E-06  AT NODE 9002738 OF CONTACT PAIR 
   (TREAD_TOP_SURFACE,ROAD_MASTER_SURFACE)
   MAX. CONTACT FORCE ERROR -26.3177E-03  AT NODE 1102742 OF CONTACT PAIR 
   (TREAD_TOP_SURFACE,ROAD_MASTER_SURFACE)
          THE CONTACT CONSTRAINT ERRORS ARE WITHIN THE TOLERANCES.

 AVERAGE FORCE                       11.9       TIME AVG. FORCE        11.9    
 LARGEST SCALED RESIDUAL FORCE      -25.2       AT NODE    6302254   DOF  3
  CORRESPONDING RESIDUAL FORCE      -25.2    
 LARGEST INCREMENT OF DISP.          3.55       AT NODE       2742   DOF  1
 LARGEST CORRECTION TO DISP.       -0.147       AT NODE    9102720   DOF  1
          FORCE     EQUILIBRIUM NOT ACHIEVED WITHIN TOLERANCE.

 AVERAGE MOMENT                     4.724E+03   TIME AVG. MOMENT      4.724E+03
 ALL MOMENT    RESIDUALS ARE ZERO
 LARGEST INCREMENT OF ROTATION     -2.511E-31   AT NODE          2   DOF  4
 LARGEST CORRECTION TO ROTATION    -2.790E-33   AT NODE          1   DOF  5
          THE MOMENT    EQUILIBRIUM EQUATIONS HAVE CONVERGED

 COMPATIBILITY ERRORS:
    TYPE                NUMBER EXCEEDING TOLERANCE  MAXIMUM ERROR        IN ELEMENT
 VOLUMETRIC                          3               -2.978E-05            6502449
 
	UNSYMMETRIC HYBRID DIRECT SPARSE SOLVER RUNNING ON
 	1 HOST x 1 MPI RANK PER HOST x 8 THREADS PER RANK
        NUMBER OF EQUATIONS:  291995
        NUMBER OF RHS:        1
        NUMBER OF FLOPS:      3.038e+12
        SOLVER ELAPSED TIME:  16s

               CONVERGENCE CHECKS FOR EQUILIBRIUM ITERATION     1

   MAX. PENETRATION ERROR -491.258E-09   AT NODE 802097 OF CONTACT PAIR 
   (LOWER_RIM_SLAVE_SURFACE,LOWER_RIM_MASTER_SURFACE)
   MAX. CONTACT FORCE ERROR -179.790E-06   AT NODE 802097 OF CONTACT PAIR 
   (LOWER_RIM_SLAVE_SURFACE,LOWER_RIM_MASTER_SURFACE)
          THE CONTACT CONSTRAINTS HAVE CONVERGED.

 AVERAGE FORCE                       11.9       TIME AVG. FORCE        11.9    
 LARGEST SCALED RESIDUAL FORCE       2.71       AT NODE    8302575   DOF  2
  CORRESPONDING RESIDUAL FORCE       2.71    
 LARGEST INCREMENT OF DISP.          3.54       AT NODE       2742   DOF  1
 LARGEST CORRECTION TO DISP.       -2.612E-02   AT NODE    9202729   DOF  1
          FORCE     EQUILIBRIUM NOT ACHIEVED WITHIN TOLERANCE.

 AVERAGE MOMENT                     4.723E+03   TIME AVG. MOMENT      4.723E+03
 ALL MOMENT    RESIDUALS ARE ZERO
 LARGEST INCREMENT OF ROTATION     -2.510E-31   AT NODE          2   DOF  4
 LARGEST CORRECTION TO ROTATION    -2.422E-34   AT NODE          2   DOF  5
          THE MOMENT    EQUILIBRIUM RESPONSE WAS LINEAR IN THIS INCREMENT

 COMPATIBILITY ERRORS:
    TYPE                NUMBER EXCEEDING TOLERANCE  MAXIMUM ERROR        IN ELEMENT
 VOLUMETRIC                          0                1.172E-06            7702404
 
	UNSYMMETRIC HYBRID DIRECT SPARSE SOLVER RUNNING ON
 	1 HOST x 1 MPI RANK PER HOST x 8 THREADS PER RANK
        NUMBER OF EQUATIONS:  291995
        NUMBER OF RHS:        1
        NUMBER OF FLOPS:      3.038e+12
        SOLVER ELAPSED TIME:  16s

               CONVERGENCE CHECKS FOR EQUILIBRIUM ITERATION     2

   MAX. PENETRATION ERROR -44.8094E-12  AT NODE 802097 OF CONTACT PAIR 
   (LOWER_RIM_SLAVE_SURFACE,LOWER_RIM_MASTER_SURFACE)
   MAX. CONTACT FORCE ERROR -16.3993E-09  AT NODE 802097 OF CONTACT PAIR 
   (LOWER_RIM_SLAVE_SURFACE,LOWER_RIM_MASTER_SURFACE)
          THE CONTACT CONSTRAINTS HAVE CONVERGED.

 AVERAGE FORCE                       11.9       TIME AVG. FORCE        11.9    
 LARGEST SCALED RESIDUAL FORCE     -2.364E-03   AT NODE    8302575   DOF  2
  CORRESPONDING RESIDUAL FORCE     -2.364E-03
 LARGEST INCREMENT OF DISP.          3.54       AT NODE       2742   DOF  1
 LARGEST CORRECTION TO DISP.        2.907E-03   AT NODE    8302439   DOF  2
          THE FORCE     EQUILIBRIUM EQUATIONS HAVE CONVERGED

 AVERAGE MOMENT                     4.723E+03   TIME AVG. MOMENT      4.723E+03
 ALL MOMENT    RESIDUALS ARE ZERO
 LARGEST INCREMENT OF ROTATION     -2.510E-31   AT NODE          2   DOF  4
 LARGEST CORRECTION TO ROTATION     1.758E-36   AT NODE          2   DOF  4
          THE MOMENT    EQUILIBRIUM EQUATIONS HAVE CONVERGED

 COMPATIBILITY ERRORS:
    TYPE                NUMBER EXCEEDING TOLERANCE  MAXIMUM ERROR        IN ELEMENT
 VOLUMETRIC                          0                3.162E-07            8202077

 ITERATION SUMMARY FOR THE INCREMENT:   4 TOTAL ITERATIONS, OF WHICH
   2 ARE SEVERE DISCONTINUITY ITERATIONS AND  2 ARE EQUILIBRIUM ITERATIONS.

 TIME INCREMENT COMPLETED  0.125    ,  FRACTION OF STEP COMPLETED  0.125    
 STEP TIME COMPLETED       0.125    ,  TOTAL TIME COMPLETED         3.12    


  INCREMENT     2 STARTS. ATTEMPT NUMBER  1, TIME INCREMENT  0.125    

                   60 SEVERE DISCONTINUITIES OCCURRED DURING INCREMENT ATTEMPT INITIALIZATION.
                   48 POINTS CHANGED FROM SLIPPING TO STICKING
                   10 POINTS CHANGED FROM STICKING TO SLIPPING
                    2 POINTS CHANGED TO SLIPPING WITH NEGATIVE CPRESS
 
	UNSYMMETRIC HYBRID DIRECT SPARSE SOLVER RUNNING ON
 	1 HOST x 1 MPI RANK PER HOST x 8 THREADS PER RANK
        NUMBER OF EQUATIONS:  291995
        NUMBER OF RHS:        1
        NUMBER OF FLOPS:      3.038e+12
        SOLVER ELAPSED TIME:  16s

                   71 SEVERE DISCONTINUITIES OCCURRED DURING THIS ITERATION.
                    4 POINTS CHANGED FROM OPEN TO CLOSED
                    8 POINTS CHANGED FROM CLOSED TO OPEN
                   47 POINTS CHANGED FROM SLIPPING TO STICKING
                   12 POINTS CHANGED FROM STICKING TO SLIPPING

               CONVERGENCE CHECKS FOR SEVERE DISCONTINUITY ITERATION     1

   MAX. PENETRATION ERROR 10.0348E-03  AT NODE 9202736 OF CONTACT PAIR 
   (TREAD_TOP_SURFACE,ROAD_MASTER_SURFACE)
   MAX. CONTACT FORCE ERROR 2.78797     AT NODE 9202736 OF CONTACT PAIR 
   (TREAD_TOP_SURFACE,ROAD_MASTER_SURFACE)
          THE CONTACT CONSTRAINT ERRORS ARE WITHIN THE TOLERANCES.

 AVERAGE FORCE                       12.4       TIME AVG. FORCE        12.1    
 LARGEST SCALED RESIDUAL FORCE       81.8       AT NODE    8802464   DOF  3
  CORRESPONDING RESIDUAL FORCE       81.8    
 LARGEST INCREMENT OF DISP.          3.14       AT NODE     102742   DOF  1
 LARGEST CORRECTION TO DISP.       -0.958       AT NODE    9302742   DOF  1
          FORCE     EQUILIBRIUM NOT ACHIEVED WITHIN TOLERANCE.

 AVERAGE MOMENT                     4.732E+03   TIME AVG. MOMENT      4.728E+03
 ALL MOMENT    RESIDUALS ARE ZERO
 LARGEST INCREMENT OF ROTATION      3.099E-31   AT NODE          2   DOF  5
 LARGEST CORRECTION TO ROTATION     1.415E-31   AT NODE          1   DOF  5
          THE MOMENT    EQUILIBRIUM EQUATIONS HAVE CONVERGED

 COMPATIBILITY ERRORS:
    TYPE                NUMBER EXCEEDING TOLERANCE  MAXIMUM ERROR        IN ELEMENT
 VOLUMETRIC                       4044               -1.353E-03            9302284
 
	UNSYMMETRIC HYBRID DIRECT SPARSE SOLVER RUNNING ON
 	1 HOST x 1 MPI RANK PER HOST x 8 THREADS PER RANK
        NUMBER OF EQUATIONS:  291993
        NUMBER OF RHS:        1
        NUMBER OF FLOPS:      3.038e+12
        SOLVER ELAPSED TIME:  16s

                   25 SEVERE DISCONTINUITIES OCCURRED DURING THIS ITERATION.
                    4 POINTS CHANGED FROM OPEN TO CLOSED
                    3 POINTS CHANGED FROM CLOSED TO OPEN
                   11 POINTS CHANGED FROM SLIPPING TO STICKING
                    7 POINTS CHANGED FROM STICKING TO SLIPPING

               CONVERGENCE CHECKS FOR SEVERE DISCONTINUITY ITERATION     2

   MAX. PENETRATION ERROR 9.35869E-03 AT NODE 9002097 OF CONTACT PAIR 
   (LOWER_RIM_SLAVE_SURFACE,LOWER_RIM_MASTER_SURFACE)
   MAX. CONTACT FORCE ERROR 3.40790     AT NODE 9002097 OF CONTACT PAIR 
   (LOWER_RIM_SLAVE_SURFACE,LOWER_RIM_MASTER_SURFACE)
          THE CONTACT CONSTRAINT ERRORS ARE WITHIN THE TOLERANCES.

 AVERAGE FORCE                       12.4       TIME AVG. FORCE        12.2    
 LARGEST SCALED RESIDUAL FORCE       107.       AT NODE    9002097   DOF  3
  CORRESPONDING RESIDUAL FORCE       107.    
 LARGEST INCREMENT OF DISP.          3.09       AT NODE     102742   DOF  1
 LARGEST CORRECTION TO DISP.       -0.580       AT NODE    9302742   DOF  2
          FORCE     EQUILIBRIUM NOT ACHIEVED WITHIN TOLERANCE.

 AVERAGE MOMENT                     4.737E+03   TIME AVG. MOMENT      4.730E+03
 ALL MOMENT    RESIDUALS ARE ZERO
 LARGEST INCREMENT OF ROTATION      3.084E-31   AT NODE          2   DOF  5
 LARGEST CORRECTION TO ROTATION     4.360E-33   AT NODE          1   DOF  4
          THE MOMENT    EQUILIBRIUM EQUATIONS HAVE CONVERGED

 COMPATIBILITY ERRORS:
    TYPE                NUMBER EXCEEDING TOLERANCE  MAXIMUM ERROR        IN ELEMENT
 VOLUMETRIC                       3096               -3.975E-04            9302284
 
	UNSYMMETRIC HYBRID DIRECT SPARSE SOLVER RUNNING ON
 	1 HOST x 1 MPI RANK PER HOST x 8 THREADS PER RANK
        NUMBER OF EQUATIONS:  291994
        NUMBER OF RHS:        1
        NUMBER OF FLOPS:      3.038e+12
        SOLVER ELAPSED TIME:  16s

                    6 SEVERE DISCONTINUITIES OCCURRED DURING THIS ITERATION.
                    1 POINTS CHANGED FROM OPEN TO CLOSED
                    1 POINTS CHANGED FROM CLOSED TO OPEN
                    1 POINTS CHANGED FROM SLIPPING TO STICKING
                    3 POINTS CHANGED FROM STICKING TO SLIPPING

               CONVERGENCE CHECKS FOR SEVERE DISCONTINUITY ITERATION     3

   MAX. PENETRATION ERROR 1.42449E-03 AT NODE 8802464 OF CONTACT PAIR 
   (UPPER_RIM_SLAVE_SURFACE,UPPER_RIM_MASTER_SURFACE)
   MAX. CONTACT FORCE ERROR 520.267E-03   AT NODE 8802464 OF CONTACT PAIR 
   (UPPER_RIM_SLAVE_SURFACE,UPPER_RIM_MASTER_SURFACE)
          THE CONTACT CONSTRAINT ERRORS ARE WITHIN THE TOLERANCES.

 AVERAGE FORCE                       12.4       TIME AVG. FORCE        12.2    
 LARGEST SCALED RESIDUAL FORCE       16.2       AT NODE    8802464   DOF  3
  CORRESPONDING RESIDUAL FORCE       16.2    
 LARGEST INCREMENT OF DISP.          3.08       AT NODE     102742   DOF  1
 LARGEST CORRECTION TO DISP.        0.131       AT NODE    9102741   DOF  2
          FORCE     EQUILIBRIUM NOT ACHIEVED WITHIN TOLERANCE.

 AVERAGE MOMENT                     4.733E+03   TIME AVG. MOMENT      4.728E+03
 ALL MOMENT    RESIDUALS ARE ZERO
 LARGEST INCREMENT OF ROTATION      3.079E-31   AT NODE          2   DOF  5
 LARGEST CORRECTION TO ROTATION    -8.767E-34   AT NODE          1   DOF  4
          THE MOMENT    EQUILIBRIUM EQUATIONS HAVE CONVERGED

 COMPATIBILITY ERRORS:
    TYPE                NUMBER EXCEEDING TOLERANCE  MAXIMUM ERROR        IN ELEMENT
 VOLUMETRIC                          9               -2.224E-05            9002281
 
	UNSYMMETRIC HYBRID DIRECT SPARSE SOLVER RUNNING ON
 	1 HOST x 1 MPI RANK PER HOST x 8 THREADS PER RANK
        NUMBER OF EQUATIONS:  291994
        NUMBER OF RHS:        1
        NUMBER OF FLOPS:      3.038e+12
        SOLVER ELAPSED TIME:  16s

               CONVERGENCE CHECKS FOR EQUILIBRIUM ITERATION     1

   MAX. PENETRATION ERROR -15.3297E-09  AT NODE 8802464 OF CONTACT PAIR 
   (UPPER_RIM_SLAVE_SURFACE,UPPER_RIM_MASTER_SURFACE)
   MAX. CONTACT FORCE ERROR -5.59867E-06 AT NODE 8802464 OF CONTACT PAIR 
   (UPPER_RIM_SLAVE_SURFACE,UPPER_RIM_MASTER_SURFACE)
          THE CONTACT CONSTRAINTS HAVE CONVERGED.

 AVERAGE FORCE                       12.4       TIME AVG. FORCE        12.2    
 LARGEST SCALED RESIDUAL FORCE     -1.050E-03   AT NODE    8802465   DOF  3
  CORRESPONDING RESIDUAL FORCE     -1.050E-03
 LARGEST INCREMENT OF DISP.          3.08       AT NODE     102742   DOF  1
 LARGEST CORRECTION TO DISP.       -2.373E-03   AT NODE    9502736   DOF  1
          THE FORCE     EQUILIBRIUM EQUATIONS HAVE CONVERGED

 AVERAGE MOMENT                     4.732E+03   TIME AVG. MOMENT      4.728E+03
 ALL MOMENT    RESIDUALS ARE ZERO
 LARGEST INCREMENT OF ROTATION      3.079E-31   AT NODE          2   DOF  5
 LARGEST CORRECTION TO ROTATION    -1.444E-35   AT NODE          1   DOF  5
          THE MOMENT    EQUILIBRIUM RESPONSE WAS LINEAR IN THIS INCREMENT

 COMPATIBILITY ERRORS:
    TYPE                NUMBER EXCEEDING TOLERANCE  MAXIMUM ERROR        IN ELEMENT
 VOLUMETRIC                          0               -1.620E-08            9402277
          TIME INCREMENT MAY NOW INCREASE TO    0.188    

 ITERATION SUMMARY FOR THE INCREMENT:   4 TOTAL ITERATIONS, OF WHICH
   3 ARE SEVERE DISCONTINUITY ITERATIONS AND  1 ARE EQUILIBRIUM ITERATIONS.

 TIME INCREMENT COMPLETED  0.125    ,  FRACTION OF STEP COMPLETED  0.250    
 STEP TIME COMPLETED       0.250    ,  TOTAL TIME COMPLETED         3.25    


  INCREMENT     3 STARTS. ATTEMPT NUMBER  1, TIME INCREMENT  0.188    

                   91 SEVERE DISCONTINUITIES OCCURRED DURING INCREMENT ATTEMPT INITIALIZATION.
                   33 POINTS CHANGED FROM SLIPPING TO STICKING
                   54 POINTS CHANGED FROM STICKING TO SLIPPING
                    4 POINTS CHANGED TO SLIPPING WITH NEGATIVE CPRESS
 
	UNSYMMETRIC HYBRID DIRECT SPARSE SOLVER RUNNING ON
 	1 HOST x 1 MPI RANK PER HOST x 8 THREADS PER RANK
        NUMBER OF EQUATIONS:  291994
        NUMBER OF RHS:        1
        NUMBER OF FLOPS:      3.038e+12
        SOLVER ELAPSED TIME:  16s

                  209 SEVERE DISCONTINUITIES OCCURRED DURING THIS ITERATION.
                    7 POINTS CHANGED FROM OPEN TO CLOSED
                   19 POINTS CHANGED FROM CLOSED TO OPEN
                  137 POINTS CHANGED FROM SLIPPING TO STICKING
                   46 POINTS CHANGED FROM STICKING TO SLIPPING

               CONVERGENCE CHECKS FOR SEVERE DISCONTINUITY ITERATION     1

   MAX. PENETRATION ERROR 14.4862E-03  AT NODE 9202736 OF CONTACT PAIR 
   (TREAD_TOP_SURFACE,ROAD_MASTER_SURFACE)
   MAX. CONTACT FORCE ERROR 4.00404     AT NODE 9202736 OF CONTACT PAIR 
   (TREAD_TOP_SURFACE,ROAD_MASTER_SURFACE)
          PENETRATION ERROR TOO LARGE COMPARED TO DISPLACEMENT INCREMENT.

 AVERAGE FORCE                       12.3       TIME AVG. FORCE        12.2    
 LARGEST SCALED RESIDUAL FORCE       113.       AT NODE    9402720   DOF  1
  CORRESPONDING RESIDUAL FORCE       113.    
 LARGEST INCREMENT OF DISP.          2.79       AT NODE     202742   DOF  1
 LARGEST CORRECTION TO DISP.        -4.66       AT NODE    9602729   DOF  1
          FORCE     EQUILIBRIUM NOT ACHIEVED WITHIN TOLERANCE.

 AVERAGE MOMENT                     4.794E+03   TIME AVG. MOMENT      4.750E+03
 ALL MOMENT    RESIDUALS ARE ZERO
 LARGEST INCREMENT OF ROTATION      3.980E-31   AT NODE          2   DOF  5
 LARGEST CORRECTION TO ROTATION     1.434E-31   AT NODE          2   DOF  4
          THE MOMENT    EQUILIBRIUM EQUATIONS HAVE CONVERGED

 COMPATIBILITY ERRORS:
    TYPE                NUMBER EXCEEDING TOLERANCE  MAXIMUM ERROR        IN ELEMENT
 VOLUMETRIC                      39237               -1.252E-02            9502268
 
	UNSYMMETRIC HYBRID DIRECT SPARSE SOLVER RUNNING ON
 	1 HOST x 1 MPI RANK PER HOST x 8 THREADS PER RANK
        NUMBER OF EQUATIONS:  291992
        NUMBER OF RHS:        1
        NUMBER OF FLOPS:      3.038e+12
        SOLVER ELAPSED TIME:  16s
 

 ***WARNING: THE SYSTEM MATRIX HAS 6 NEGATIVE EIGENVALUES.
             EXPLANATIONS ARE SUGGESTED AFTER THE FIRST OCCURRENCE OF THIS MESSAGE.

                  138 SEVERE DISCONTINUITIES OCCURRED DURING THIS ITERATION.
                   10 POINTS CHANGED FROM OPEN TO CLOSED
                    7 POINTS CHANGED FROM CLOSED TO OPEN
                   57 POINTS CHANGED FROM SLIPPING TO STICKING
                   64 POINTS CHANGED FROM STICKING TO SLIPPING

               CONVERGENCE CHECKS FOR SEVERE DISCONTINUITY ITERATION     2

   MAX. PENETRATION ERROR 18.9339E-03  AT NODE 8902729 OF CONTACT PAIR 
   (TREAD_TOP_SURFACE,ROAD_MASTER_SURFACE)
   MAX. CONTACT FORCE ERROR 6.74931     AT NODE 8902729 OF CONTACT PAIR 
   (TREAD_TOP_SURFACE,ROAD_MASTER_SURFACE)
          THE CONTACT CONSTRAINT ERRORS ARE WITHIN THE TOLERANCES.

 AVERAGE FORCE                       12.3       TIME AVG. FORCE        12.2    
 LARGEST SCALED RESIDUAL FORCE       135.       AT NODE    8902464   DOF  3
  CORRESPONDING RESIDUAL FORCE       135.    
 LARGEST INCREMENT OF DISP.          4.18       AT NODE       2309   DOF  1
 LARGEST CORRECTION TO DISP.         3.47       AT NODE    9502720   DOF  1
          FORCE     EQUILIBRIUM NOT ACHIEVED WITHIN TOLERANCE.

 AVERAGE MOMENT                     4.774E+03   TIME AVG. MOMENT      4.743E+03
 ALL MOMENT    RESIDUALS ARE ZERO
 LARGEST INCREMENT OF ROTATION      4.823E-31   AT NODE          2   DOF  5
 LARGEST CORRECTION TO ROTATION     8.431E-32   AT NODE          2   DOF  5
          THE MOMENT    EQUILIBRIUM EQUATIONS HAVE CONVERGED

 COMPATIBILITY ERRORS:
    TYPE                NUMBER EXCEEDING TOLERANCE  MAXIMUM ERROR        IN ELEMENT
 VOLUMETRIC                      28102               -1.079E-02            9502268
 
	UNSYMMETRIC HYBRID DIRECT SPARSE SOLVER RUNNING ON
 	1 HOST x 1 MPI RANK PER HOST x 8 THREADS PER RANK
        NUMBER OF EQUATIONS:  291992
        NUMBER OF RHS:        1
        NUMBER OF FLOPS:      3.038e+12
        SOLVER ELAPSED TIME:  16s

                   99 SEVERE DISCONTINUITIES OCCURRED DURING THIS ITERATION.
                    5 POINTS CHANGED FROM OPEN TO CLOSED
                    7 POINTS CHANGED FROM CLOSED TO OPEN
                   60 POINTS CHANGED FROM SLIPPING TO STICKING
                   27 POINTS CHANGED FROM STICKING TO SLIPPING

               CONVERGENCE CHECKS FOR SEVERE DISCONTINUITY ITERATION     3

   MAX. PENETRATION ERROR 11.1510E-03  AT NODE 1102741 OF CONTACT PAIR 
   (TREAD_TOP_SURFACE,ROAD_MASTER_SURFACE)
   MAX. CONTACT FORCE ERROR 3.85997     AT NODE 1102741 OF CONTACT PAIR 
   (TREAD_TOP_SURFACE,ROAD_MASTER_SURFACE)
          THE CONTACT CONSTRAINT ERRORS ARE WITHIN THE TOLERANCES.

 AVERAGE FORCE                       12.4       TIME AVG. FORCE        12.2    
 LARGEST SCALED RESIDUAL FORCE       56.2       AT NODE    8802464   DOF  3
  CORRESPONDING RESIDUAL FORCE       56.2    
 LARGEST INCREMENT OF DISP.          4.32       AT NODE       2730   DOF  1
 LARGEST CORRECTION TO DISP.         1.11       AT NODE    9302270   DOF  2
          FORCE     EQUILIBRIUM NOT ACHIEVED WITHIN TOLERANCE.

 AVERAGE MOMENT                     4.768E+03   TIME AVG. MOMENT      4.741E+03
 ALL MOMENT    RESIDUALS ARE ZERO
 LARGEST INCREMENT OF ROTATION      4.824E-31   AT NODE          2   DOF  5
 LARGEST CORRECTION TO ROTATION    -9.833E-33   AT NODE          1   DOF  4
          THE MOMENT    EQUILIBRIUM EQUATIONS HAVE CONVERGED

 COMPATIBILITY ERRORS:
    TYPE                NUMBER EXCEEDING TOLERANCE  MAXIMUM ERROR        IN ELEMENT
 VOLUMETRIC                      14777                1.874E-03            9402281
 
	UNSYMMETRIC HYBRID DIRECT SPARSE SOLVER RUNNING ON
 	1 HOST x 1 MPI RANK PER HOST x 8 THREADS PER RANK
        NUMBER OF EQUATIONS:  291991
        NUMBER OF RHS:        1
        NUMBER OF FLOPS:      3.038e+12
        SOLVER ELAPSED TIME:  16s

                   25 SEVERE DISCONTINUITIES OCCURRED DURING THIS ITERATION.
                    3 POINTS CHANGED FROM OPEN TO CLOSED
                    2 POINTS CHANGED FROM CLOSED TO OPEN
                   10 POINTS CHANGED FROM SLIPPING TO STICKING
                   10 POINTS CHANGED FROM STICKING TO SLIPPING

               CONVERGENCE CHECKS FOR SEVERE DISCONTINUITY ITERATION     4

   MAX. PENETRATION ERROR 6.39789E-03 AT NODE 702097 OF CONTACT PAIR 
   (LOWER_RIM_SLAVE_SURFACE,LOWER_RIM_MASTER_SURFACE)
   MAX. CONTACT FORCE ERROR 2.34634     AT NODE 702097 OF CONTACT PAIR 
   (LOWER_RIM_SLAVE_SURFACE,LOWER_RIM_MASTER_SURFACE)
          THE CONTACT CONSTRAINT ERRORS ARE WITHIN THE TOLERANCES.

 AVERAGE FORCE                       12.4       TIME AVG. FORCE        12.2    
 LARGEST SCALED RESIDUAL FORCE       74.3       AT NODE     702097   DOF  3
  CORRESPONDING RESIDUAL FORCE       74.3    
 LARGEST INCREMENT OF DISP.          3.70       AT NODE     202742   DOF  1
 LARGEST CORRECTION TO DISP.       -0.746       AT NODE       2730   DOF  1
          FORCE     EQUILIBRIUM NOT ACHIEVED WITHIN TOLERANCE.

 AVERAGE MOMENT                     4.765E+03   TIME AVG. MOMENT      4.740E+03
 ALL MOMENT    RESIDUALS ARE ZERO
 LARGEST INCREMENT OF ROTATION      4.656E-31   AT NODE          2   DOF  5
 LARGEST CORRECTION TO ROTATION    -1.686E-32   AT NODE          1   DOF  5
          THE MOMENT    EQUILIBRIUM EQUATIONS HAVE CONVERGED

 COMPATIBILITY ERRORS:
    TYPE                NUMBER EXCEEDING TOLERANCE  MAXIMUM ERROR        IN ELEMENT
 VOLUMETRIC                       4702               -6.558E-04            9602284
 
	UNSYMMETRIC HYBRID DIRECT SPARSE SOLVER RUNNING ON
 	1 HOST x 1 MPI RANK PER HOST x 8 THREADS PER RANK
        NUMBER OF EQUATIONS:  291992
        NUMBER OF RHS:        1
        NUMBER OF FLOPS:      3.038e+12
        SOLVER ELAPSED TIME:  16s

                    8 SEVERE DISCONTINUITIES OCCURRED DURING THIS ITERATION.
                    1 POINTS CHANGED FROM CLOSED TO OPEN
                    3 POINTS CHANGED FROM SLIPPING TO STICKING
                    4 POINTS CHANGED FROM STICKING TO SLIPPING

               CONVERGENCE CHECKS FOR SEVERE DISCONTINUITY ITERATION     5

   MAX. PENETRATION ERROR 644.068E-09   AT NODE 9702736 OF CONTACT PAIR 
   (TREAD_TOP_SURFACE,ROAD_MASTER_SURFACE)
   MAX. CONTACT FORCE ERROR -365.411E-06   AT NODE 1502408 OF CONTACT PAIR 
   (UPPER_RIM_SLAVE_SURFACE,UPPER_RIM_MASTER_SURFACE)
          THE CONTACT CONSTRAINT ERRORS ARE WITHIN THE TOLERANCES.

 AVERAGE FORCE                       12.4       TIME AVG. FORCE        12.3    
 LARGEST SCALED RESIDUAL FORCE      -1.44       AT NODE    9802741   DOF  1
  CORRESPONDING RESIDUAL FORCE      -1.44    
 LARGEST INCREMENT OF DISP.          3.67       AT NODE     302742   DOF  1
 LARGEST CORRECTION TO DISP.       -0.197       AT NODE    9902721   DOF  1
          FORCE     EQUILIBRIUM NOT ACHIEVED WITHIN TOLERANCE.

 AVERAGE MOMENT                     4.765E+03   TIME AVG. MOMENT      4.740E+03
 ALL MOMENT    RESIDUALS ARE ZERO
 LARGEST INCREMENT OF ROTATION      4.641E-31   AT NODE          2   DOF  5
 LARGEST CORRECTION TO ROTATION    -1.555E-33   AT NODE          2   DOF  5
          THE MOMENT    EQUILIBRIUM EQUATIONS HAVE CONVERGED

 COMPATIBILITY ERRORS:
    TYPE                NUMBER EXCEEDING TOLERANCE  MAXIMUM ERROR        IN ELEMENT
 VOLUMETRIC                         19               -6.060E-05            9702281
 
	UNSYMMETRIC HYBRID DIRECT SPARSE SOLVER RUNNING ON
 	1 HOST x 1 MPI RANK PER HOST x 8 THREADS PER RANK
        NUMBER OF EQUATIONS:  291991
        NUMBER OF RHS:        1
        NUMBER OF FLOPS:      3.038e+12
        SOLVER ELAPSED TIME:  16s

               CONVERGENCE CHECKS FOR EQUILIBRIUM ITERATION     1

   MAX. PENETRATION ERROR 25.0623E-09  AT NODE 9902736 OF CONTACT PAIR 
   (TREAD_TOP_SURFACE,ROAD_MASTER_SURFACE)
   MAX. CONTACT FORCE ERROR 6.80921E-06 AT NODE 9902736 OF CONTACT PAIR 
   (TREAD_TOP_SURFACE,ROAD_MASTER_SURFACE)
          THE CONTACT CONSTRAINTS HAVE CONVERGED.

 AVERAGE FORCE                       12.4       TIME AVG. FORCE        12.3    
 LARGEST SCALED RESIDUAL FORCE     -8.211E-03   AT NODE    9802741   DOF  1
  CORRESPONDING RESIDUAL FORCE     -8.211E-03
 LARGEST INCREMENT OF DISP.          3.66       AT NODE     302742   DOF  1
 LARGEST CORRECTION TO DISP.       -3.593E-02   AT NODE    9702270   DOF  1
          THE FORCE     EQUILIBRIUM EQUATIONS HAVE CONVERGED

 AVERAGE MOMENT                     4.765E+03   TIME AVG. MOMENT      4.740E+03
 ALL MOMENT    RESIDUALS ARE ZERO
 LARGEST INCREMENT OF ROTATION      4.639E-31   AT NODE          2   DOF  5
 LARGEST CORRECTION TO ROTATION    -1.202E-34   AT NODE          1   DOF  4
          THE MOMENT    EQUILIBRIUM RESPONSE WAS LINEAR IN THIS INCREMENT

 COMPATIBILITY ERRORS:
    TYPE                NUMBER EXCEEDING TOLERANCE  MAXIMUM ERROR        IN ELEMENT
 VOLUMETRIC                          0               -2.146E-06            9702281
          TIME INCREMENT MAY NOW INCREASE TO    0.281    

 ITERATION SUMMARY FOR THE INCREMENT:   6 TOTAL ITERATIONS, OF WHICH
   5 ARE SEVERE DISCONTINUITY ITERATIONS AND  1 ARE EQUILIBRIUM ITERATIONS.

 TIME INCREMENT COMPLETED  0.188    ,  FRACTION OF STEP COMPLETED  0.438    
 STEP TIME COMPLETED       0.438    ,  TOTAL TIME COMPLETED         3.44    


  INCREMENT     4 STARTS. ATTEMPT NUMBER  1, TIME INCREMENT  0.281    

                  119 SEVERE DISCONTINUITIES OCCURRED DURING INCREMENT ATTEMPT INITIALIZATION.
                   21 POINTS CHANGED FROM SLIPPING TO STICKING
                   95 POINTS CHANGED FROM STICKING TO SLIPPING
                    3 POINTS CHANGED TO SLIPPING WITH NEGATIVE CPRESS
 
	UNSYMMETRIC HYBRID DIRECT SPARSE SOLVER RUNNING ON
 	1 HOST x 1 MPI RANK PER HOST x 8 THREADS PER RANK
        NUMBER OF EQUATIONS:  291991
        NUMBER OF RHS:        1
        NUMBER OF FLOPS:      3.038e+12
        SOLVER ELAPSED TIME:  16s
 

 ***WARNING: THE SYSTEM MATRIX HAS 10 NEGATIVE EIGENVALUES.
             EXPLANATIONS ARE SUGGESTED AFTER THE FIRST OCCURRENCE OF THIS MESSAGE.
   UNIAXIAL CONSTRAINT COULD NOT BE SATISFIED FOR ELEMENT 9700067. THE PROBLEM 
   MAY BE CAUSED BY LARGE STRAIN INCREMENTS. A SMALLER TIME INCREMENT WILL BE 
   USED.
   UNIAXIAL CONSTRAINT COULD NOT BE SATISFIED FOR ELEMENT 9700068. THE PROBLEM 
   MAY BE CAUSED BY LARGE STRAIN INCREMENTS. A SMALLER TIME INCREMENT WILL BE 
   USED.
   UNIAXIAL CONSTRAINT COULD NOT BE SATISFIED FOR ELEMENT 9800068. THE PROBLEM 
   MAY BE CAUSED BY LARGE STRAIN INCREMENTS. A SMALLER TIME INCREMENT WILL BE 
   USED.
   UNIAXIAL CONSTRAINT COULD NOT BE SATISFIED FOR ELEMENT 9700069. THE PROBLEM 
   MAY BE CAUSED BY LARGE STRAIN INCREMENTS. A SMALLER TIME INCREMENT WILL BE 
   USED.
   UNIAXIAL CONSTRAINT COULD NOT BE SATISFIED FOR ELEMENT 9800069. THE PROBLEM 
   MAY BE CAUSED BY LARGE STRAIN INCREMENTS. A SMALLER TIME INCREMENT WILL BE 
   USED.
   UNIAXIAL CONSTRAINT COULD NOT BE SATISFIED FOR ELEMENT 9900071. THE PROBLEM 
   MAY BE CAUSED BY LARGE STRAIN INCREMENTS. A SMALLER TIME INCREMENT WILL BE 
   USED.

                  308 SEVERE DISCONTINUITIES OCCURRED DURING THIS ITERATION.
                    8 POINTS CHANGED FROM OPEN TO CLOSED
                   34 POINTS CHANGED FROM CLOSED TO OPEN
                  223 POINTS CHANGED FROM SLIPPING TO STICKING
                   43 POINTS CHANGED FROM STICKING TO SLIPPING

               CONVERGENCE CHECKS FOR SEVERE DISCONTINUITY ITERATION     1

   MAX. PENETRATION ERROR 146.036E-03   AT NODE 402650 OF CONTACT PAIR 
   (TREAD_TOP_SURFACE,ROAD_MASTER_SURFACE)
   MAX. CONTACT FORCE ERROR 44.8298      AT NODE 402650 OF CONTACT PAIR 
   (TREAD_TOP_SURFACE,ROAD_MASTER_SURFACE)
          PENETRATION ERROR TOO LARGE COMPARED TO DISPLACEMENT INCREMENT.

 AVERAGE FORCE                       12.8       TIME AVG. FORCE        12.4    
 LARGEST SCALED RESIDUAL FORCE      -874.       AT NODE     202742   DOF  1
  CORRESPONDING RESIDUAL FORCE      -874.    
 LARGEST INCREMENT OF DISP.         -6.97       AT NODE     102742   DOF  1
 LARGEST CORRECTION TO DISP.        -12.4       AT NODE     102742   DOF  1
          FORCE     EQUILIBRIUM NOT ACHIEVED WITHIN TOLERANCE.

 AVERAGE MOMENT                     4.985E+03   TIME AVG. MOMENT      4.801E+03
 ALL MOMENT    RESIDUALS ARE ZERO
 LARGEST INCREMENT OF ROTATION      3.919E-31   AT NODE          2   DOF  5
 LARGEST CORRECTION TO ROTATION    -3.041E-31   AT NODE          2   DOF  5
          THE MOMENT    EQUILIBRIUM EQUATIONS HAVE CONVERGED

 COMPATIBILITY ERRORS:
    TYPE                NUMBER EXCEEDING TOLERANCE  MAXIMUM ERROR        IN ELEMENT
 VOLUMETRIC                      53122               -4.866E-02            9902245
 
	UNSYMMETRIC HYBRID DIRECT SPARSE SOLVER RUNNING ON
 	1 HOST x 1 MPI RANK PER HOST x 8 THREADS PER RANK
        NUMBER OF EQUATIONS:  291982
        NUMBER OF RHS:        1
        NUMBER OF FLOPS:      3.038e+12
        SOLVER ELAPSED TIME:  16s
 

 ***WARNING: THE SYSTEM MATRIX HAS 55 NEGATIVE EIGENVALUES.
             EXPLANATIONS ARE SUGGESTED AFTER THE FIRST OCCURRENCE OF THIS MESSAGE.
   ELEMENT 302268 IS DISTORTING EXCESSIVELY.
   ELEMENT 9702268 IS DISTORTING EXCESSIVELY.
   ELEMENT 9702268 IS DISTORTING EXCESSIVELY.
   ELEMENT 9302274 IS DISTORTING EXCESSIVELY.
   ELEMENT 9402274 IS DISTORTING EXCESSIVELY.
   ELEMENT 9402274 IS DISTORTING EXCESSIVELY.
   ELEMENT 9602274 IS DISTORTING EXCESSIVELY.
   ELEMENT 9602274 IS DISTORTING EXCESSIVELY.
   ELEMENT 9702274 IS DISTORTING EXCESSIVELY.
   ELEMENT 9702274 IS DISTORTING EXCESSIVELY.
   ELEMENT 9802274 IS DISTORTING EXCESSIVELY.

 ***WARNING: EXCESSIVE DISTORTION AT A TOTAL OF 11 INTEGRATION POINTS IN SOLID 
             (CONTINUUM) ELEMENTS
 

 ***NOTE: ELEMENTS ARE DISTORTING EXCESSIVELY. CONVERGENCE IS JUDGED UNLIKELY.


  INCREMENT     4 STARTS. ATTEMPT NUMBER  2, TIME INCREMENT  7.031E-02

                   28 SEVERE DISCONTINUITIES OCCURRED DURING INCREMENT ATTEMPT INITIALIZATION.
                   17 POINTS CHANGED FROM SLIPPING TO STICKING
                   10 POINTS CHANGED FROM STICKING TO SLIPPING
                    1 POINTS CHANGED TO SLIPPING WITH NEGATIVE CPRESS
 
	UNSYMMETRIC HYBRID DIRECT SPARSE SOLVER RUNNING ON
 	1 HOST x 1 MPI RANK PER HOST x 8 THREADS PER RANK
        NUMBER OF EQUATIONS:  291991
        NUMBER OF RHS:        1
        NUMBER OF FLOPS:      3.038e+12
        SOLVER ELAPSED TIME:  17s

                   23 SEVERE DISCONTINUITIES OCCURRED DURING THIS ITERATION.
                    1 POINTS CHANGED FROM OPEN TO CLOSED
                    3 POINTS CHANGED FROM CLOSED TO OPEN
                   16 POINTS CHANGED FROM SLIPPING TO STICKING
                    3 POINTS CHANGED FROM STICKING TO SLIPPING

               CONVERGENCE CHECKS FOR SEVERE DISCONTINUITY ITERATION     1

   MAX. PENETRATION ERROR 125.456E-06   AT NODE 1502408 OF CONTACT PAIR 
   (UPPER_RIM_SLAVE_SURFACE,UPPER_RIM_MASTER_SURFACE)
   MAX. CONTACT FORCE ERROR -527.027E-03   AT NODE 1102741 OF CONTACT PAIR 
   (TREAD_TOP_SURFACE,ROAD_MASTER_SURFACE)
          THE CONTACT CONSTRAINT ERRORS ARE WITHIN THE TOLERANCES.

 AVERAGE FORCE                       12.5       TIME AVG. FORCE        12.3    
 LARGEST SCALED RESIDUAL FORCE      -4.63       AT NODE    9902721   DOF  1
  CORRESPONDING RESIDUAL FORCE      -4.63    
 LARGEST INCREMENT OF DISP.          1.13       AT NODE     402742   DOF  1
 LARGEST CORRECTION TO DISP.       -0.566       AT NODE       2742   DOF  1
          FORCE     EQUILIBRIUM NOT ACHIEVED WITHIN TOLERANCE.

 AVERAGE MOMENT                     4.772E+03   TIME AVG. MOMENT      4.748E+03
 ALL MOMENT    RESIDUALS ARE ZERO
 LARGEST INCREMENT OF ROTATION      5.091E-31   AT NODE          2   DOF  5
 LARGEST CORRECTION TO ROTATION     3.351E-31   AT NODE          2   DOF  5
          THE MOMENT    EQUILIBRIUM EQUATIONS HAVE CONVERGED

 COMPATIBILITY ERRORS:
    TYPE                NUMBER EXCEEDING TOLERANCE  MAXIMUM ERROR        IN ELEMENT
 VOLUMETRIC                        215               -1.061E-04               2284
 
	UNSYMMETRIC HYBRID DIRECT SPARSE SOLVER RUNNING ON
 	1 HOST x 1 MPI RANK PER HOST x 8 THREADS PER RANK
        NUMBER OF EQUATIONS:  291990
        NUMBER OF RHS:        1
        NUMBER OF FLOPS:      3.038e+12
        SOLVER ELAPSED TIME:  16s

                    2 SEVERE DISCONTINUITIES OCCURRED DURING THIS ITERATION.
                    2 POINTS CHANGED FROM SLIPPING TO STICKING

               CONVERGENCE CHECKS FOR SEVERE DISCONTINUITY ITERATION     2

   MAX. PENETRATION ERROR -473.228E-09   AT NODE 9902097 OF CONTACT PAIR 
   (LOWER_RIM_SLAVE_SURFACE,LOWER_RIM_MASTER_SURFACE)
   MAX. CONTACT FORCE ERROR -171.954E-06   AT NODE 9902097 OF CONTACT PAIR 
   (LOWER_RIM_SLAVE_SURFACE,LOWER_RIM_MASTER_SURFACE)
          THE CONTACT CONSTRAINT ERRORS ARE WITHIN THE TOLERANCES.

 AVERAGE FORCE                       12.5       TIME AVG. FORCE        12.3    
 LARGEST SCALED RESIDUAL FORCE     -0.407       AT NODE    6602292   DOF  2
  CORRESPONDING RESIDUAL FORCE     -0.407    
 LARGEST INCREMENT OF DISP.          1.10       AT NODE     402742   DOF  1
 LARGEST CORRECTION TO DISP.       -9.398E-02   AT NODE    9902721   DOF  1
          FORCE     EQUILIBRIUM NOT ACHIEVED WITHIN TOLERANCE.

 AVERAGE MOMENT                     4.774E+03   TIME AVG. MOMENT      4.748E+03
 ALL MOMENT    RESIDUALS ARE ZERO
 LARGEST INCREMENT OF ROTATION      5.080E-31   AT NODE          2   DOF  5
 LARGEST CORRECTION TO ROTATION    -1.049E-33   AT NODE          2   DOF  5
          THE MOMENT    EQUILIBRIUM EQUATIONS HAVE CONVERGED

 COMPATIBILITY ERRORS:
    TYPE                NUMBER EXCEEDING TOLERANCE  MAXIMUM ERROR        IN ELEMENT
 VOLUMETRIC                          1               -1.162E-05            9902268
 
	UNSYMMETRIC HYBRID DIRECT SPARSE SOLVER RUNNING ON
 	1 HOST x 1 MPI RANK PER HOST x 8 THREADS PER RANK
        NUMBER OF EQUATIONS:  291990
        NUMBER OF RHS:        1
        NUMBER OF FLOPS:      3.038e+12
        SOLVER ELAPSED TIME:  16s

               CONVERGENCE CHECKS FOR EQUILIBRIUM ITERATION     1

   MAX. PENETRATION ERROR -2.10718E-09 AT NODE 9902309 OF CONTACT PAIR 
   (TREAD_TOP_SURFACE,ROAD_MASTER_SURFACE)
   MAX. CONTACT FORCE ERROR -386.775E-09   AT NODE 9902309 OF CONTACT PAIR 
   (TREAD_TOP_SURFACE,ROAD_MASTER_SURFACE)
          THE CONTACT CONSTRAINTS HAVE CONVERGED.

 AVERAGE FORCE                       12.5       TIME AVG. FORCE        12.3    
 LARGEST SCALED RESIDUAL FORCE      4.550E-02   AT NODE    7202247   DOF  2
  CORRESPONDING RESIDUAL FORCE      4.550E-02
 LARGEST INCREMENT OF DISP.          1.10       AT NODE     402742   DOF  1
 LARGEST CORRECTION TO DISP.        5.588E-03   AT NODE    9902309   DOF  2
          THE FORCE     EQUILIBRIUM EQUATIONS HAVE CONVERGED

 AVERAGE MOMENT                     4.774E+03   TIME AVG. MOMENT      4.748E+03
 ALL MOMENT    RESIDUALS ARE ZERO
 LARGEST INCREMENT OF ROTATION      5.080E-31   AT NODE          2   DOF  5
 LARGEST CORRECTION TO ROTATION    -1.965E-35   AT NODE          1   DOF  5
          THE MOMENT    EQUILIBRIUM RESPONSE WAS LINEAR IN THIS INCREMENT

 COMPATIBILITY ERRORS:
    TYPE                NUMBER EXCEEDING TOLERANCE  MAXIMUM ERROR        IN ELEMENT
 VOLUMETRIC                          0                2.357E-08            9902268
          TIME INCREMENT MAY NOW INCREASE TO    0.105    

 ITERATION SUMMARY FOR THE INCREMENT:   3 TOTAL ITERATIONS, OF WHICH
   2 ARE SEVERE DISCONTINUITY ITERATIONS AND  1 ARE EQUILIBRIUM ITERATIONS.

 TIME INCREMENT COMPLETED  7.031E-02,  FRACTION OF STEP COMPLETED  0.508    
 STEP TIME COMPLETED       0.508    ,  TOTAL TIME COMPLETED         3.51    


  INCREMENT     5 STARTS. ATTEMPT NUMBER  1, TIME INCREMENT  0.105    

                   40 SEVERE DISCONTINUITIES OCCURRED DURING INCREMENT ATTEMPT INITIALIZATION.
                   26 POINTS CHANGED FROM SLIPPING TO STICKING
                   13 POINTS CHANGED FROM STICKING TO SLIPPING
                    1 POINTS CHANGED TO SLIPPING WITH NEGATIVE CPRESS
 
	UNSYMMETRIC HYBRID DIRECT SPARSE SOLVER RUNNING ON
 	1 HOST x 1 MPI RANK PER HOST x 8 THREADS PER RANK
        NUMBER OF EQUATIONS:  291990
        NUMBER OF RHS:        1
        NUMBER OF FLOPS:      3.038e+12
        SOLVER ELAPSED TIME:  17s

                   40 SEVERE DISCONTINUITIES OCCURRED DURING THIS ITERATION.
                    8 POINTS CHANGED FROM CLOSED TO OPEN
                   20 POINTS CHANGED FROM SLIPPING TO STICKING
                   12 POINTS CHANGED FROM STICKING TO SLIPPING

               CONVERGENCE CHECKS FOR SEVERE DISCONTINUITY ITERATION     1

   MAX. PENETRATION ERROR -36.1814E-06  AT NODE 102742 OF CONTACT PAIR 
[...]
 LARGEST CORRECTION TO DISP.        7.778E-03   AT NODE    8802301   DOF  2
          FORCE     EQUILIBRIUM NOT ACHIEVED WITHIN TOLERANCE.

 AVERAGE MOMENT                     4.927E+03   TIME AVG. MOMENT      4.788E+03
 ALL MOMENT    RESIDUALS ARE ZERO
 LARGEST INCREMENT OF ROTATION     -1.175E-30   AT NODE          1   DOF  5
 LARGEST CORRECTION TO ROTATION     9.675E-36   AT NODE          1   DOF  4
          THE MOMENT    EQUILIBRIUM EQUATIONS HAVE CONVERGED

 COMPATIBILITY ERRORS:
    TYPE                NUMBER EXCEEDING TOLERANCE  MAXIMUM ERROR        IN ELEMENT
 VOLUMETRIC                          0                1.888E-06            8702385
 
	UNSYMMETRIC HYBRID DIRECT SPARSE SOLVER RUNNING ON
 	1 HOST x 1 MPI RANK PER HOST x 8 THREADS PER RANK
        NUMBER OF EQUATIONS:  291971
        NUMBER OF RHS:        1
        NUMBER OF FLOPS:      3.170e+12
        SOLVER ELAPSED TIME:  18s
 

 ***WARNING: THE SYSTEM MATRIX HAS 22 NEGATIVE EIGENVALUES.
             EXPLANATIONS ARE SUGGESTED AFTER THE FIRST OCCURRENCE OF THIS MESSAGE.

               CONVERGENCE CHECKS FOR EQUILIBRIUM ITERATION     6

   MAX. PENETRATION ERROR -201.478E-12   AT NODE 8902310 OF CONTACT PAIR 
   (TREAD_TOP_SURFACE,ROAD_MASTER_SURFACE)
   MAX. CONTACT FORCE ERROR -34.7167E-09  AT NODE 8902310 OF CONTACT PAIR 
   (TREAD_TOP_SURFACE,ROAD_MASTER_SURFACE)
          THE CONTACT CONSTRAINTS HAVE CONVERGED.

 AVERAGE FORCE                       12.8       TIME AVG. FORCE        12.8    
 LARGEST SCALED RESIDUAL FORCE     -9.151E-03   AT NODE    8802300   DOF  2
  CORRESPONDING RESIDUAL FORCE     -9.151E-03
 LARGEST INCREMENT OF DISP.         -4.80       AT NODE     702742   DOF  1
 LARGEST CORRECTION TO DISP.       -6.621E-03   AT NODE    8802301   DOF  2
          THE FORCE     EQUILIBRIUM EQUATIONS HAVE CONVERGED

 AVERAGE MOMENT                     4.927E+03   TIME AVG. MOMENT      4.788E+03
 ALL MOMENT    RESIDUALS ARE ZERO
 LARGEST INCREMENT OF ROTATION     -1.175E-30   AT NODE          1   DOF  5
 LARGEST CORRECTION TO ROTATION    -8.278E-36   AT NODE          1   DOF  4
          THE MOMENT    EQUILIBRIUM EQUATIONS HAVE CONVERGED

 COMPATIBILITY ERRORS:
    TYPE                NUMBER EXCEEDING TOLERANCE  MAXIMUM ERROR        IN ELEMENT
 VOLUMETRIC                          0                1.340E-06            8702385

 ITERATION SUMMARY FOR THE INCREMENT:   9 TOTAL ITERATIONS, OF WHICH
   3 ARE SEVERE DISCONTINUITY ITERATIONS AND  6 ARE EQUILIBRIUM ITERATIONS.

 TIME INCREMENT COMPLETED  0.135    ,  FRACTION OF STEP COMPLETED  0.886    
 STEP TIME COMPLETED       0.886    ,  TOTAL TIME COMPLETED         4.89    

     RESTART INFORMATION WRITTEN IN STEP   5  AFTER INCREMENT    13


  INCREMENT    14 STARTS. ATTEMPT NUMBER  1, TIME INCREMENT  0.114    

                  133 SEVERE DISCONTINUITIES OCCURRED DURING INCREMENT ATTEMPT INITIALIZATION.
                    1 POINTS CHANGED FROM SLIPPING TO STICKING
                  131 POINTS CHANGED FROM STICKING TO SLIPPING
                    1 POINTS CHANGED TO SLIPPING WITH NEGATIVE CPRESS
 
	UNSYMMETRIC HYBRID DIRECT SPARSE SOLVER RUNNING ON
 	1 HOST x 1 MPI RANK PER HOST x 8 THREADS PER RANK
        NUMBER OF EQUATIONS:  291971
        NUMBER OF RHS:        1
        NUMBER OF FLOPS:      3.170e+12
        SOLVER ELAPSED TIME:  16s
 

 ***WARNING: THE SYSTEM MATRIX HAS 41 NEGATIVE EIGENVALUES.
             EXPLANATIONS ARE SUGGESTED AFTER THE FIRST OCCURRENCE OF THIS MESSAGE.

                   63 SEVERE DISCONTINUITIES OCCURRED DURING THIS ITERATION.
                    5 POINTS CHANGED FROM OPEN TO CLOSED
                   10 POINTS CHANGED FROM CLOSED TO OPEN
                   10 POINTS CHANGED FROM SLIPPING TO STICKING
                   38 POINTS CHANGED FROM STICKING TO SLIPPING

               CONVERGENCE CHECKS FOR SEVERE DISCONTINUITY ITERATION     1

   MAX. PENETRATION ERROR 29.7809E-03  AT NODE 1202738 OF CONTACT PAIR 
   (TREAD_TOP_SURFACE,ROAD_MASTER_SURFACE)
   MAX. CONTACT FORCE ERROR 9.94471     AT NODE 1202738 OF CONTACT PAIR 
   (TREAD_TOP_SURFACE,ROAD_MASTER_SURFACE)
          PENETRATION ERROR TOO LARGE COMPARED TO DISPLACEMENT INCREMENT.

 AVERAGE FORCE                       12.8       TIME AVG. FORCE        12.8    
 LARGEST SCALED RESIDUAL FORCE       21.8       AT NODE     502741   DOF  1
  CORRESPONDING RESIDUAL FORCE       21.8    
 LARGEST INCREMENT OF DISP.         -3.47       AT NODE     502720   DOF  1
 LARGEST CORRECTION TO DISP.         1.62       AT NODE     502116   DOF  1
          FORCE     EQUILIBRIUM NOT ACHIEVED WITHIN TOLERANCE.

 AVERAGE MOMENT                     4.968E+03   TIME AVG. MOMENT      4.800E+03
 ALL MOMENT    RESIDUALS ARE ZERO
 LARGEST INCREMENT OF ROTATION     -1.307E-30   AT NODE          1   DOF  5
 LARGEST CORRECTION TO ROTATION    -3.117E-31   AT NODE          1   DOF  5
          THE MOMENT    EQUILIBRIUM EQUATIONS HAVE CONVERGED

 COMPATIBILITY ERRORS:
    TYPE                NUMBER EXCEEDING TOLERANCE  MAXIMUM ERROR        IN ELEMENT
 VOLUMETRIC                      15013               -1.645E-03             702284
 
	UNSYMMETRIC HYBRID DIRECT SPARSE SOLVER RUNNING ON
 	1 HOST x 1 MPI RANK PER HOST x 8 THREADS PER RANK
        NUMBER OF EQUATIONS:  291967
        NUMBER OF RHS:        1
        NUMBER OF FLOPS:      3.170e+12
        SOLVER ELAPSED TIME:  16s
 

 ***WARNING: THE SYSTEM MATRIX HAS 47 NEGATIVE EIGENVALUES.
             EXPLANATIONS ARE SUGGESTED AFTER THE FIRST OCCURRENCE OF THIS MESSAGE.

                   33 SEVERE DISCONTINUITIES OCCURRED DURING THIS ITERATION.
                    2 POINTS CHANGED FROM OPEN TO CLOSED
                    7 POINTS CHANGED FROM SLIPPING TO STICKING
                   24 POINTS CHANGED FROM STICKING TO SLIPPING

               CONVERGENCE CHECKS FOR SEVERE DISCONTINUITY ITERATION     2

   MAX. PENETRATION ERROR 9.15785E-03 AT NODE 6002098 OF CONTACT PAIR 
   (LOWER_RIM_SLAVE_SURFACE,LOWER_RIM_MASTER_SURFACE)
   MAX. CONTACT FORCE ERROR 34.7505      AT NODE 6002098 OF CONTACT PAIR 
   (LOWER_RIM_SLAVE_SURFACE,LOWER_RIM_MASTER_SURFACE)
          THE ESTIMATED CONTACT FORCE ERROR IS OUTSIDE OF CONVERGENCE TOLERANCES.

 AVERAGE FORCE                       12.8       TIME AVG. FORCE        12.8    
 LARGEST SCALED RESIDUAL FORCE     -1.023E+03   AT NODE    6002098   DOF  1
  CORRESPONDING RESIDUAL FORCE     -1.023E+03
 LARGEST INCREMENT OF DISP.         -3.16       AT NODE     402720   DOF  1
 LARGEST CORRECTION TO DISP.        0.706       AT NODE     502720   DOF  1
          FORCE     EQUILIBRIUM NOT ACHIEVED WITHIN TOLERANCE.

 AVERAGE MOMENT                     4.999E+03   TIME AVG. MOMENT      4.803E+03
 ALL MOMENT    RESIDUALS ARE ZERO
 LARGEST INCREMENT OF ROTATION     -1.299E-30   AT NODE          1   DOF  5
 LARGEST CORRECTION TO ROTATION     8.010E-33   AT NODE          1   DOF  5
          THE MOMENT    EQUILIBRIUM EQUATIONS HAVE CONVERGED

 COMPATIBILITY ERRORS:
    TYPE                NUMBER EXCEEDING TOLERANCE  MAXIMUM ERROR        IN ELEMENT
 VOLUMETRIC                        264               -4.883E-04             302262
 
	UNSYMMETRIC HYBRID DIRECT SPARSE SOLVER RUNNING ON
 	1 HOST x 1 MPI RANK PER HOST x 8 THREADS PER RANK
        NUMBER OF EQUATIONS:  291968
        NUMBER OF RHS:        1
        NUMBER OF FLOPS:      3.170e+12
        SOLVER ELAPSED TIME:  18s
 

 ***WARNING: THE SYSTEM MATRIX HAS 39 NEGATIVE EIGENVALUES.
             EXPLANATIONS ARE SUGGESTED AFTER THE FIRST OCCURRENCE OF THIS MESSAGE.

                   19 SEVERE DISCONTINUITIES OCCURRED DURING THIS ITERATION.
                    1 POINTS CHANGED FROM CLOSED TO OPEN
                    9 POINTS CHANGED FROM SLIPPING TO STICKING
                    9 POINTS CHANGED FROM STICKING TO SLIPPING

               CONVERGENCE CHECKS FOR SEVERE DISCONTINUITY ITERATION     3

   MAX. PENETRATION ERROR -4.21224E-06 AT NODE 402742 OF CONTACT PAIR 
   (TREAD_TOP_SURFACE,ROAD_MASTER_SURFACE)
   MAX. CONTACT FORCE ERROR -3.62875E-03 AT NODE 402736 OF CONTACT PAIR 
   (TREAD_TOP_SURFACE,ROAD_MASTER_SURFACE)
          THE CONTACT CONSTRAINT ERRORS ARE WITHIN THE TOLERANCES.

 AVERAGE FORCE                       12.8       TIME AVG. FORCE        12.8    
 LARGEST SCALED RESIDUAL FORCE       3.41       AT NODE     302742   DOF  1
  CORRESPONDING RESIDUAL FORCE       3.41    
 LARGEST INCREMENT OF DISP.         -2.89       AT NODE     402742   DOF  1
 LARGEST CORRECTION TO DISP.        0.367       AT NODE     402720   DOF  1
          FORCE     EQUILIBRIUM NOT ACHIEVED WITHIN TOLERANCE.

 AVERAGE MOMENT                     4.967E+03   TIME AVG. MOMENT      4.800E+03
 ALL MOMENT    RESIDUALS ARE ZERO
 LARGEST INCREMENT OF ROTATION     -1.297E-30   AT NODE          1   DOF  5
 LARGEST CORRECTION TO ROTATION     2.168E-33   AT NODE          1   DOF  5
          THE MOMENT    EQUILIBRIUM EQUATIONS HAVE CONVERGED

 COMPATIBILITY ERRORS:
    TYPE                NUMBER EXCEEDING TOLERANCE  MAXIMUM ERROR        IN ELEMENT
 VOLUMETRIC                         51               -1.138E-04             302284
 
	UNSYMMETRIC HYBRID DIRECT SPARSE SOLVER RUNNING ON
 	1 HOST x 1 MPI RANK PER HOST x 8 THREADS PER RANK
        NUMBER OF EQUATIONS:  291968
        NUMBER OF RHS:        1
        NUMBER OF FLOPS:      3.170e+12
        SOLVER ELAPSED TIME:  17s
 

 ***WARNING: THE SYSTEM MATRIX HAS 34 NEGATIVE EIGENVALUES.
             EXPLANATIONS ARE SUGGESTED AFTER THE FIRST OCCURRENCE OF THIS MESSAGE.

                   13 SEVERE DISCONTINUITIES OCCURRED DURING THIS ITERATION.
                    1 POINTS CHANGED FROM OPEN TO CLOSED
                    3 POINTS CHANGED FROM SLIPPING TO STICKING
                    9 POINTS CHANGED FROM STICKING TO SLIPPING

               CONVERGENCE CHECKS FOR SEVERE DISCONTINUITY ITERATION     4

   MAX. PENETRATION ERROR 2.61239E-03 AT NODE 402736 OF CONTACT PAIR 
   (TREAD_TOP_SURFACE,ROAD_MASTER_SURFACE)
   MAX. CONTACT FORCE ERROR 665.053E-03   AT NODE 402736 OF CONTACT PAIR 
   (TREAD_TOP_SURFACE,ROAD_MASTER_SURFACE)
          THE CONTACT CONSTRAINT ERRORS ARE WITHIN THE TOLERANCES.

 AVERAGE FORCE                       12.8       TIME AVG. FORCE        12.8    
 LARGEST SCALED RESIDUAL FORCE       3.39       AT NODE     202742   DOF  1
  CORRESPONDING RESIDUAL FORCE       3.39    
 LARGEST INCREMENT OF DISP.         -2.86       AT NODE     402729   DOF  1
 LARGEST CORRECTION TO DISP.        0.158       AT NODE     102710   DOF  1
          FORCE     EQUILIBRIUM NOT ACHIEVED WITHIN TOLERANCE.

 AVERAGE MOMENT                     4.967E+03   TIME AVG. MOMENT      4.800E+03
 ALL MOMENT    RESIDUALS ARE ZERO
 LARGEST INCREMENT OF ROTATION     -1.296E-30   AT NODE          1   DOF  5
 LARGEST CORRECTION TO ROTATION     1.031E-33   AT NODE          1   DOF  5
          THE MOMENT    EQUILIBRIUM EQUATIONS HAVE CONVERGED

 COMPATIBILITY ERRORS:
    TYPE                NUMBER EXCEEDING TOLERANCE  MAXIMUM ERROR        IN ELEMENT
 VOLUMETRIC                         19               -4.018E-05             202284
 
	UNSYMMETRIC HYBRID DIRECT SPARSE SOLVER RUNNING ON
 	1 HOST x 1 MPI RANK PER HOST x 8 THREADS PER RANK
        NUMBER OF EQUATIONS:  291968
        NUMBER OF RHS:        1
        NUMBER OF FLOPS:      3.170e+12
        SOLVER ELAPSED TIME:  17s
 

 ***WARNING: THE SYSTEM MATRIX HAS 32 NEGATIVE EIGENVALUES.
             EXPLANATIONS ARE SUGGESTED AFTER THE FIRST OCCURRENCE OF THIS MESSAGE.

                    5 SEVERE DISCONTINUITIES OCCURRED DURING THIS ITERATION.
                    2 POINTS CHANGED FROM SLIPPING TO STICKING
                    3 POINTS CHANGED FROM STICKING TO SLIPPING

               CONVERGENCE CHECKS FOR SEVERE DISCONTINUITY ITERATION     5

   MAX. PENETRATION ERROR -2.02364E-06 AT NODE 9902116 OF CONTACT PAIR 
   (TREAD_TOP_SURFACE,ROAD_MASTER_SURFACE)
   MAX. CONTACT FORCE ERROR -349.332E-06   AT NODE 9902116 OF CONTACT PAIR 
   (TREAD_TOP_SURFACE,ROAD_MASTER_SURFACE)
          THE CONTACT CONSTRAINT ERRORS ARE WITHIN THE TOLERANCES.

 AVERAGE FORCE                       12.8       TIME AVG. FORCE        12.8    
 LARGEST SCALED RESIDUAL FORCE       1.43       AT NODE    9802116   DOF  1
  CORRESPONDING RESIDUAL FORCE       1.43    
 LARGEST INCREMENT OF DISP.         -2.85       AT NODE     402729   DOF  1
 LARGEST CORRECTION TO DISP.        0.132       AT NODE       2116   DOF  1
          FORCE     EQUILIBRIUM NOT ACHIEVED WITHIN TOLERANCE.

 AVERAGE MOMENT                     4.965E+03   TIME AVG. MOMENT      4.800E+03
 ALL MOMENT    RESIDUALS ARE ZERO
 LARGEST INCREMENT OF ROTATION     -1.295E-30   AT NODE          1   DOF  5
 LARGEST CORRECTION TO ROTATION     5.862E-34   AT NODE          1   DOF  5
          THE MOMENT    EQUILIBRIUM EQUATIONS HAVE CONVERGED

 COMPATIBILITY ERRORS:
    TYPE                NUMBER EXCEEDING TOLERANCE  MAXIMUM ERROR        IN ELEMENT
 VOLUMETRIC                          6                3.515E-05            9902258
 
	UNSYMMETRIC HYBRID DIRECT SPARSE SOLVER RUNNING ON
 	1 HOST x 1 MPI RANK PER HOST x 8 THREADS PER RANK
        NUMBER OF EQUATIONS:  291968
        NUMBER OF RHS:        1
        NUMBER OF FLOPS:      3.170e+12
        SOLVER ELAPSED TIME:  17s
 

 ***WARNING: THE SYSTEM MATRIX HAS 30 NEGATIVE EIGENVALUES.
             EXPLANATIONS ARE SUGGESTED AFTER THE FIRST OCCURRENCE OF THIS MESSAGE.

                    3 SEVERE DISCONTINUITIES OCCURRED DURING THIS ITERATION.
                    3 POINTS CHANGED FROM STICKING TO SLIPPING

               CONVERGENCE CHECKS FOR SEVERE DISCONTINUITY ITERATION     6

   MAX. PENETRATION ERROR -845.792E-09   AT NODE 9802116 OF CONTACT PAIR 
   (TREAD_TOP_SURFACE,ROAD_MASTER_SURFACE)
   MAX. CONTACT FORCE ERROR -145.698E-06   AT NODE 9802116 OF CONTACT PAIR 
   (TREAD_TOP_SURFACE,ROAD_MASTER_SURFACE)
          THE CONTACT CONSTRAINT ERRORS ARE WITHIN THE TOLERANCES.

 AVERAGE FORCE                       12.8       TIME AVG. FORCE        12.8    
 LARGEST SCALED RESIDUAL FORCE      0.415       AT NODE    9802116   DOF  1
  CORRESPONDING RESIDUAL FORCE      0.415    
 LARGEST INCREMENT OF DISP.         -2.85       AT NODE     402729   DOF  1
 LARGEST CORRECTION TO DISP.        0.138       AT NODE    9902116   DOF  1
          FORCE     EQUILIBRIUM NOT ACHIEVED WITHIN TOLERANCE.

 AVERAGE MOMENT                     4.965E+03   TIME AVG. MOMENT      4.800E+03
 ALL MOMENT    RESIDUALS ARE ZERO
 LARGEST INCREMENT OF ROTATION     -1.295E-30   AT NODE          1   DOF  5
 LARGEST CORRECTION TO ROTATION     3.063E-34   AT NODE          1   DOF  5
          THE MOMENT    EQUILIBRIUM EQUATIONS HAVE CONVERGED

 COMPATIBILITY ERRORS:
    TYPE                NUMBER EXCEEDING TOLERANCE  MAXIMUM ERROR        IN ELEMENT
 VOLUMETRIC                          2               -2.253E-05            9902258
 
	UNSYMMETRIC HYBRID DIRECT SPARSE SOLVER RUNNING ON
 	1 HOST x 1 MPI RANK PER HOST x 8 THREADS PER RANK
        NUMBER OF EQUATIONS:  291968
        NUMBER OF RHS:        1
        NUMBER OF FLOPS:      3.170e+12
        SOLVER ELAPSED TIME:  18s
 

 ***WARNING: THE SYSTEM MATRIX HAS 30 NEGATIVE EIGENVALUES.
             EXPLANATIONS ARE SUGGESTED AFTER THE FIRST OCCURRENCE OF THIS MESSAGE.

                    1 SEVERE DISCONTINUITIES OCCURRED DURING THIS ITERATION.
                    1 POINTS CHANGED FROM STICKING TO SLIPPING

               CONVERGENCE CHECKS FOR SEVERE DISCONTINUITY ITERATION     7

   MAX. PENETRATION ERROR -296.627E-09   AT NODE 9702116 OF CONTACT PAIR 
   (TREAD_TOP_SURFACE,ROAD_MASTER_SURFACE)
   MAX. CONTACT FORCE ERROR -50.9342E-06  AT NODE 9702116 OF CONTACT PAIR 
   (TREAD_TOP_SURFACE,ROAD_MASTER_SURFACE)
          THE CONTACT CONSTRAINT ERRORS ARE WITHIN THE TOLERANCES.

 AVERAGE FORCE                       12.8       TIME AVG. FORCE        12.8    
 LARGEST SCALED RESIDUAL FORCE      7.170E-02   AT NODE    9702116   DOF  1
  CORRESPONDING RESIDUAL FORCE      7.170E-02
 LARGEST INCREMENT OF DISP.         -2.85       AT NODE     402729   DOF  1
 LARGEST CORRECTION TO DISP.        6.461E-02   AT NODE    9802116   DOF  1
          FORCE     EQUILIBRIUM NOT ACHIEVED WITHIN TOLERANCE.

 AVERAGE MOMENT                     4.965E+03   TIME AVG. MOMENT      4.800E+03
 ALL MOMENT    RESIDUALS ARE ZERO
 LARGEST INCREMENT OF ROTATION     -1.295E-30   AT NODE          1   DOF  5
 LARGEST CORRECTION TO ROTATION     8.865E-35   AT NODE          1   DOF  5
          THE MOMENT    EQUILIBRIUM EQUATIONS HAVE CONVERGED

 COMPATIBILITY ERRORS:
    TYPE                NUMBER EXCEEDING TOLERANCE  MAXIMUM ERROR        IN ELEMENT
 VOLUMETRIC                          0                6.979E-06            9702258
 
	UNSYMMETRIC HYBRID DIRECT SPARSE SOLVER RUNNING ON
 	1 HOST x 1 MPI RANK PER HOST x 8 THREADS PER RANK
        NUMBER OF EQUATIONS:  291968
        NUMBER OF RHS:        1
        NUMBER OF FLOPS:      3.170e+12
        SOLVER ELAPSED TIME:  18s
 

 ***WARNING: THE SYSTEM MATRIX HAS 30 NEGATIVE EIGENVALUES.
             EXPLANATIONS ARE SUGGESTED AFTER THE FIRST OCCURRENCE OF THIS MESSAGE.

               CONVERGENCE CHECKS FOR EQUILIBRIUM ITERATION     1

   MAX. PENETRATION ERROR -9.42922E-09 AT NODE 9602116 OF CONTACT PAIR 
   (TREAD_TOP_SURFACE,ROAD_MASTER_SURFACE)
   MAX. CONTACT FORCE ERROR -1.61247E-06 AT NODE 9602116 OF CONTACT PAIR 
   (TREAD_TOP_SURFACE,ROAD_MASTER_SURFACE)
          THE CONTACT CONSTRAINTS HAVE CONVERGED.

 AVERAGE FORCE                       12.8       TIME AVG. FORCE        12.8    
 LARGEST SCALED RESIDUAL FORCE      6.157E-03   AT NODE    2502613   DOF  2
  CORRESPONDING RESIDUAL FORCE      6.157E-03
 LARGEST INCREMENT OF DISP.         -2.85       AT NODE     402729   DOF  1
 LARGEST CORRECTION TO DISP.        1.133E-02   AT NODE    9702116   DOF  1
          THE FORCE     EQUILIBRIUM EQUATIONS HAVE CONVERGED

 AVERAGE MOMENT                     4.965E+03   TIME AVG. MOMENT      4.800E+03
 ALL MOMENT    RESIDUALS ARE ZERO
 LARGEST INCREMENT OF ROTATION     -1.295E-30   AT NODE          1   DOF  5
 LARGEST CORRECTION TO ROTATION     6.551E-36   AT NODE          1   DOF  5
          THE MOMENT    EQUILIBRIUM RESPONSE WAS LINEAR IN THIS INCREMENT

 COMPATIBILITY ERRORS:
    TYPE                NUMBER EXCEEDING TOLERANCE  MAXIMUM ERROR        IN ELEMENT
 VOLUMETRIC                          0                2.140E-07            9602258

 ITERATION SUMMARY FOR THE INCREMENT:   8 TOTAL ITERATIONS, OF WHICH
   7 ARE SEVERE DISCONTINUITY ITERATIONS AND  1 ARE EQUILIBRIUM ITERATIONS.

 TIME INCREMENT COMPLETED  0.114    ,  FRACTION OF STEP COMPLETED   1.00    
 STEP TIME COMPLETED        1.00    ,  TOTAL TIME COMPLETED         5.00    

     RESTART INFORMATION WRITTEN IN STEP   5  AFTER INCREMENT    14


          THE ANALYSIS HAS BEEN COMPLETED



     ANALYSIS SUMMARY:
     TOTAL OF         42  INCREMENTS
                       8  CUTBACKS IN AUTOMATIC INCREMENTATION
                     257  ITERATIONS INCLUDING CONTACT ITERATIONS IF PRESENT
                     257  PASSES THROUGH THE EQUATION SOLVER OF WHICH 
                     257  INVOLVE MATRIX DECOMPOSITION, INCLUDING
                       0  DECOMPOSITION(S) OF THE MASS MATRIX
                       1  REORDERING OF EQUATIONS TO MINIMIZE WAVEFRONT
                       0  ADDITIONAL RESIDUAL EVALUATIONS FOR LINE SEARCHES
                       0  ADDITIONAL OPERATOR EVALUATIONS FOR LINE SEARCHES
                       6  WARNING MESSAGES DURING USER INPUT PROCESSING
                     101  WARNING MESSAGES DURING ANALYSIS
                       0  ANALYSIS WARNINGS ARE NUMERICAL PROBLEM MESSAGES
                      96  ANALYSIS WARNINGS ARE NEGATIVE EIGENVALUE MESSAGES
                       0  ERROR MESSAGES



     JOB TIME SUMMARY
       USER TIME (SEC)      =     2.40E+04
       SYSTEM TIME (SEC)    =     3.04E+02
       TOTAL CPU TIME (SEC) =     2.43E+04
       WALLCLOCK TIME (SEC) =         6180
       MEMORY PEAK (GB)     =           11
