 Abaqus/Standard 2024.HF5                  DATE 16-Oct-2025 TIME 10:51:13
 SUMMARY OF JOB INFORMATION:
 STEP  INC ATT SEVERE EQUIL TOTAL  TOTAL      STEP       INC OF       DOF    IF
               DISCON ITERS ITERS  TIME/    TIME/LPF    TIME/LPF    MONITOR RIKS
               ITERS               FREQ
   4     1   1U   11     0    11  3.00       0.000      0.5000    
   4     1   2     2     2     4  3.13       0.125      0.1250    
   4     2   1     3     1     4  3.25       0.250      0.1250    
   4     3   1     5     1     6  3.44       0.438      0.1875    
   4     4   1U    1     1     2  3.44       0.438      0.2813    
   4     4   2     2     1     3  3.51       0.508      0.07031   
   4     5   1     4     1     5  3.61       0.613      0.1055    
   4     6   1     9     1    10  3.77       0.771      0.1582    
   4     7   1U    1     1     2  3.77       0.771      0.2285    
   4     7   2     1     1     2  3.83       0.829      0.05713   
   4     8   1     3     1     4  3.91       0.914      0.08569   
   4     9   1     4     2     6  4.00       1.00       0.08569   
   5     1   1     3     1     4  4.10       0.100      0.1000    
   5     2   1U    2     1     3  4.10       0.100      0.1000    
   5     2   2     4     1     5  4.13       0.125      0.02500   
   5     3   1     4     1     5  4.16       0.163      0.03750   
   5     4   1     4     1     5  4.22       0.219      0.05625   
   5     5   1     7     2     9  4.30       0.303      0.08438   
   5     6   1U    4     8    12  4.30       0.303      0.1266    
   5     6   2     2     1     3  4.33       0.335      0.03164   
   5     7   1     3     0     3  4.38       0.382      0.04746   
   5     8   1     2     2     4  4.45       0.453      0.07119   
   5     9   1     2     4     6  4.56       0.560      0.1068    
   5    10   1U    4     8    12  4.56       0.560      0.1602    
   5    10   2     2     1     3  4.60       0.600      0.04005   
   5    11   1     1     2     3  4.66       0.660      0.06007   
   5    12   1     4     2     6  4.75       0.750      0.09010   
   5    13   1     3     6     9  4.89       0.886      0.1352    
   5    14   1     7     1     8  5.00       1.00       0.1144    
                          
 THE ANALYSIS HAS COMPLETED SUCCESSFULLY
