1

   Abaqus 2024.HF5                                  Date 16-Oct-2025   Time 12:27:33
   For use by APOLLO TYRES LTD under license from Dassault Systemes or its subsidiary.

 Project name:                                                                   
 FRICTION CHANGE - FR                                                            
 STEP    6     INCREMENT     1     STEP TIME    0.00    


                  S T E P       6     S T E A D Y   S T A T E   T R A N S P O R T   A N A L Y S I S


          FRICTION CHANGE - FR                                                            

     AUTOMATIC TIME CONTROL WITH -
          A SUGGESTED INITIAL TIME INCREMENT OF                 1.00    
          AND A TOTAL TIME PERIOD OF                            1.00    
          THE MINIMUM TIME INCREMENT ALLOWED IS                1.000E-05
          THE MAXIMUM TIME INCREMENT ALLOWED IS                 1.00    

     INERTIA EFFECTS ARE INCLUDED IN THIS STEP.
     INERTIA STABILIZATION FACTOR =   1.00    

 CONVERGENCE TOLERANCE PARAMETERS FOR FORCE    
     CRITERION FOR RESIDUAL FORCE     FOR A NONLINEAR PROBLEM          5.000E-03
     CRITERION FOR DISP.    CORRECTION IN A NONLINEAR PROBLEM          1.000E-02
     INIT. VALUE OF TIME AVG. FORCE     IS TIME AVG. FORCE     IN PREVIOUS STEP
     AVERAGE FORCE     IS TIME AVERAGE FORCE    
     ALTERNATE CRIT. FOR RESIDUAL FORCE     FOR A NONLINEAR PROBLEM    2.000E-02
     CRITERION FOR ZERO FORCE     RELATIVE TO TIME AVRG. FORCE         1.000E-05
     CRITERION FOR RESIDUAL FORCE     WHEN THERE IS ZERO FLUX          1.000E-05
     CRITERION FOR DISP.    CORRECTION WHEN THERE IS ZERO FLUX         1.000E-03
     CRITERION FOR RESIDUAL FORCE     FOR A LINEAR INCREMENT           1.000E-08
     FIELD CONVERSION RATIO                                             1.00    
     CRITERION FOR ZERO FORCE     REL. TO TIME AVRG. MAX. FORCE        1.000E-05
     CRITERION FOR ZERO DISP.    RELATIVE TO CHARACTERISTIC LENGTH     1.000E-08

 CONVERGENCE TOLERANCE PARAMETERS FOR MOMENT   
     CRITERION FOR RESIDUAL MOMENT    FOR A NONLINEAR PROBLEM          5.000E-03
     CRITERION FOR ROTATION CORRECTION IN A NONLINEAR PROBLEM          1.000E-02
     INIT. VALUE OF TIME AVG. MOMENT    IS TIME AVG. MOMENT    IN PREVIOUS STEP
     AVERAGE MOMENT    IS TIME AVERAGE MOMENT   
     ALTERNATE CRIT. FOR RESIDUAL MOMENT    FOR A NONLINEAR PROBLEM    2.000E-02
     CRITERION FOR ZERO MOMENT    RELATIVE TO TIME AVRG. MOMENT        1.000E-05
     CRITERION FOR RESIDUAL MOMENT    WHEN THERE IS ZERO FLUX          1.000E-05
     CRITERION FOR ROTATION CORRECTION WHEN THERE IS ZERO FLUX         1.000E-03
     CRITERION FOR RESIDUAL MOMENT    FOR A LINEAR INCREMENT           1.000E-08
     FIELD CONVERSION RATIO                                             1.00    
     CRITERION FOR ZERO MOMENT    REL. TO TIME AVRG. MAX. MOMENT       1.000E-05

     VOLUMETRIC STRAIN COMPATIBILITY TOLERANCE FOR HYBRID SOLIDS       1.000E-05
     AXIAL STRAIN COMPATIBILITY TOLERANCE FOR HYBRID BEAMS             1.000E-05
     TRANS. SHEAR STRAIN COMPATIBILITY TOLERANCE FOR HYBRID BEAMS      1.000E-05
     SOFT CONTACT CONSTRAINT COMPATIBILITY TOLERANCE FOR P>P0          5.000E-03
     SOFT CONTACT CONSTRAINT COMPATIBILITY TOLERANCE FOR P=0.0         0.100    
     CONTACT FORCE ERROR TOLERANCE FOR CONVERT SDI=YES                 1.00    
     DISPLACEMENT COMPATIBILITY TOLERANCE FOR DCOUP ELEMENTS           1.000E-05
     ROTATION COMPATIBILITY TOLERANCE FOR DCOUP ELEMENTS               1.000E-05

 EQUILIBRIUM WILL BE CHECKED FOR SEVERE DISCONTINUITY ITERATIONS

 TIME INCREMENTATION CONTROL PARAMETERS:
 *** FIRST EQUILIBRIUM ITERATION FOR CONSECUTIVE DIVERGENCE CHECK              8
 *** EQUILIBRIUM ITERATION AT WHICH LOG. CONVERGENCE RATE CHECK BEGINS        10
     EQUILIBRIUM ITERATION AFTER WHICH ALTERNATE RESIDUAL IS USED              9
     MAXIMUM EQUILIBRIUM ITERATIONS ALLOWED                                   16
     EQUILIBRIUM ITERATION COUNT FOR CUT-BACK IN NEXT INCREMENT               10
     MAXIMUM EQUILIB. ITERS IN TWO INCREMENTS FOR TIME INCREMENT INCREASE      4
     MAXIMUM ITERATIONS FOR SEVERE DISCONTINUITIES                            50
     MAXIMUM ATTEMPTS ALLOWED IN AN INCREMENT                                  5
     MAXIMUM DISCON. ITERS IN TWO INCREMENTS FOR TIME INCREMENT INCREASE      50
     MAXIMUM CONTACT AUGMENTATIONS FOR *SURFACE BEHAVIOR,AUGMENTED LAGRANGE   50
     CUT-BACK FACTOR AFTER DIVERGENCE                                 0.2500    
     CUT-BACK FACTOR FOR TOO SLOW CONVERGENCE                         0.5000    
     CUT-BACK FACTOR AFTER TOO MANY EQUILIBRIUM ITERATIONS            0.7500    
     CUT-BACK FACTOR AFTER TOO MANY SEVERE DISCONTINUITY ITERATIONS   0.2500    
     CUT-BACK FACTOR AFTER PROBLEMS IN ELEMENT ASSEMBLY               0.2500    
     INCREASE FACTOR AFTER TWO INCREMENTS THAT CONVERGE QUICKLY        1.500    
     MAX. TIME INCREMENT INCREASE FACTOR ALLOWED                       1.500    
     MAX. TIME INCREMENT INCREASE FACTOR ALLOWED (DYNAMICS)            1.250    
     MAX. TIME INCREMENT INCREASE FACTOR ALLOWED (DIFFUSION)           2.000    
     MINIMUM TIME INCREMENT RATIO FOR EXTRAPOLATION TO OCCUR          0.1000    
     MAX. RATIO OF TIME INCREMENT TO STABILITY LIMIT                   1.000    
     FRACTION OF STABILITY LIMIT FOR NEW TIME INCREMENT               0.9500    
     TIME INCREMENT INCREASE FACTOR BEFORE A TIME POINT                1.000    

 *** INDICATES USE OF NON-DEFAULT TIME INCREMENTATION CONTROL PARAMETER
     SELECTED WITH *CONTROLS

 CONTACT CONTROLS APPLIED TO ALL CONTACT PAIRS:
     GLOBAL STABILIZATION CONTROL IS NOT USED

          PRINT OF INCREMENT NUMBER, TIME, ETC., EVERY    1  INCREMENTS

     RESTART FILE WILL BE WRITTEN EVERY   100  INCREMENTS

     THE MAXIMUM NUMBER OF INCREMENTS IN THIS STEP IS                     300

          LARGE DISPLACEMENT THEORY WILL BE USED

          UNSYMMETRIC MATRIX STORAGE AND SOLUTION WILL BE USED

     LINEAR EXTRAPOLATION WILL BE USED

     CHARACTERISTIC ELEMENT LENGTH      10.1    

     DETAILS REGARDING ACTUAL SOLUTION WAVEFRONT REQUESTED

     DETAILED OUTPUT OF DIAGNOSTICS TO DATABASE REQUESTED

     PRINT OF INCREMENT NUMBER, TIME, ETC., TO THE MESSAGE FILE EVERY     1  INCREMENTS

     ELEMENT OPERATIONS WILL NOT BE CARRIED OUT IN PARALLEL

     COLLECTING MODEL CONSTRAINT INFORMATION FOR OVERCONSTRAINT CHECKS

     COLLECTING STEP CONSTRAINT INFORMATION FOR OVERCONSTRAINT CHECKS


  INCREMENT     1 STARTS. ATTEMPT NUMBER  1, TIME INCREMENT   1.00    

                  187 SEVERE DISCONTINUITIES OCCURRED DURING INCREMENT ATTEMPT INITIALIZATION.
                   12 POINTS CHANGED FROM SLIPPING TO STICKING
                  175 POINTS CHANGED FROM STICKING TO SLIPPING
 
	UNSYMMETRIC HYBRID DIRECT SPARSE SOLVER RUNNING ON
 	1 HOST x 1 MPI RANK PER HOST x 8 THREADS PER RANK
        NUMBER OF EQUATIONS:  291968
        NUMBER OF RHS:        1
        NUMBER OF FLOPS:      3.058e+12
        SOLVER ELAPSED TIME:  20s
 

 ***WARNING: THE SYSTEM MATRIX HAS 28 NEGATIVE EIGENVALUES.

     NEGATIVE EIGENVALUES MEAN THAT THE SYSTEM MATRIX IS NOT 
     POSITIVE DEFINITE:
     FOR EXAMPLE, A BIFURCATION (BUCKLING) LOAD MAY HAVE BEEN EXCEEDED.
   UNIAXIAL CONSTRAINT COULD NOT BE SATISFIED FOR ELEMENT 600011. THE PROBLEM 
   MAY BE CAUSED BY LARGE STRAIN INCREMENTS. A SMALLER TIME INCREMENT WILL BE 
   USED.
   UNIAXIAL CONSTRAINT COULD NOT BE SATISFIED FOR ELEMENT 700011. THE PROBLEM 
   MAY BE CAUSED BY LARGE STRAIN INCREMENTS. A SMALLER TIME INCREMENT WILL BE 
   USED.
   UNIAXIAL CONSTRAINT COULD NOT BE SATISFIED FOR ELEMENT 800011. THE PROBLEM 
   MAY BE CAUSED BY LARGE STRAIN INCREMENTS. A SMALLER TIME INCREMENT WILL BE 
   USED.
   UNIAXIAL CONSTRAINT COULD NOT BE SATISFIED FOR ELEMENT 3500011. THE PROBLEM 
   MAY BE CAUSED BY LARGE STRAIN INCREMENTS. A SMALLER TIME INCREMENT WILL BE 
   USED.
   UNIAXIAL CONSTRAINT COULD NOT BE SATISFIED FOR ELEMENT 5100011. THE PROBLEM 
   MAY BE CAUSED BY LARGE STRAIN INCREMENTS. A SMALLER TIME INCREMENT WILL BE 
   USED.
   UNIAXIAL CONSTRAINT COULD NOT BE SATISFIED FOR ELEMENT 5400011. THE PROBLEM 
   MAY BE CAUSED BY LARGE STRAIN INCREMENTS. A SMALLER TIME INCREMENT WILL BE 
   USED.
   UNIAXIAL CONSTRAINT COULD NOT BE SATISFIED FOR ELEMENT 5500011. THE PROBLEM 
   MAY BE CAUSED BY LARGE STRAIN INCREMENTS. A SMALLER TIME INCREMENT WILL BE 
   USED.
   UNIAXIAL CONSTRAINT COULD NOT BE SATISFIED FOR ELEMENT 5600011. THE PROBLEM 
   MAY BE CAUSED BY LARGE STRAIN INCREMENTS. A SMALLER TIME INCREMENT WILL BE 
   USED.
   UNIAXIAL CONSTRAINT COULD NOT BE SATISFIED FOR ELEMENT 5700011. THE PROBLEM 
   MAY BE CAUSED BY LARGE STRAIN INCREMENTS. A SMALLER TIME INCREMENT WILL BE 
   USED.
   UNIAXIAL CONSTRAINT COULD NOT BE SATISFIED FOR ELEMENT 200012. THE PROBLEM 
   MAY BE CAUSED BY LARGE STRAIN INCREMENTS. A SMALLER TIME INCREMENT WILL BE 
   USED.
   UNIAXIAL CONSTRAINT COULD NOT BE SATISFIED FOR ELEMENT 300012. THE PROBLEM 
   MAY BE CAUSED BY LARGE STRAIN INCREMENTS. A SMALLER TIME INCREMENT WILL BE 
   USED.
   UNIAXIAL CONSTRAINT COULD NOT BE SATISFIED FOR ELEMENT 400012. THE PROBLEM 
   MAY BE CAUSED BY LARGE STRAIN INCREMENTS. A SMALLER TIME INCREMENT WILL BE 
   USED.
   UNIAXIAL CONSTRAINT COULD NOT BE SATISFIED FOR ELEMENT 500012. THE PROBLEM 
   MAY BE CAUSED BY LARGE STRAIN INCREMENTS. A SMALLER TIME INCREMENT WILL BE 
   USED.
   UNIAXIAL CONSTRAINT COULD NOT BE SATISFIED FOR ELEMENT 600012. THE PROBLEM 
   MAY BE CAUSED BY LARGE STRAIN INCREMENTS. A SMALLER TIME INCREMENT WILL BE 
   USED.
   UNIAXIAL CONSTRAINT COULD NOT BE SATISFIED FOR ELEMENT 700012. THE PROBLEM 
   MAY BE CAUSED BY LARGE STRAIN INCREMENTS. A SMALLER TIME INCREMENT WILL BE 
   USED.
   UNIAXIAL CONSTRAINT COULD NOT BE SATISFIED FOR ELEMENT 5200012. THE PROBLEM 
   MAY BE CAUSED BY LARGE STRAIN INCREMENTS. A SMALLER TIME INCREMENT WILL BE 
   USED.
   UNIAXIAL CONSTRAINT COULD NOT BE SATISFIED FOR ELEMENT 5300012. THE PROBLEM 
   MAY BE CAUSED BY LARGE STRAIN INCREMENTS. A SMALLER TIME INCREMENT WILL BE 
   USED.
   UNIAXIAL CONSTRAINT COULD NOT BE SATISFIED FOR ELEMENT 5400012. THE PROBLEM 
   MAY BE CAUSED BY LARGE STRAIN INCREMENTS. A SMALLER TIME INCREMENT WILL BE 
   USED.
   UNIAXIAL CONSTRAINT COULD NOT BE SATISFIED FOR ELEMENT 9500012. THE PROBLEM 
   MAY BE CAUSED BY LARGE STRAIN INCREMENTS. A SMALLER TIME INCREMENT WILL BE 
   USED.
   UNIAXIAL CONSTRAINT COULD NOT BE SATISFIED FOR ELEMENT 9600012. THE PROBLEM 
   MAY BE CAUSED BY LARGE STRAIN INCREMENTS. A SMALLER TIME INCREMENT WILL BE 
   USED.
   UNIAXIAL CONSTRAINT COULD NOT BE SATISFIED FOR ELEMENT 9700012. THE PROBLEM 
   MAY BE CAUSED BY LARGE STRAIN INCREMENTS. A SMALLER TIME INCREMENT WILL BE 
   USED.
   UNIAXIAL CONSTRAINT COULD NOT BE SATISFIED FOR ELEMENT 9800012. THE PROBLEM 
   MAY BE CAUSED BY LARGE STRAIN INCREMENTS. A SMALLER TIME INCREMENT WILL BE 
   USED.
   UNIAXIAL CONSTRAINT COULD NOT BE SATISFIED FOR ELEMENT 400013. THE PROBLEM 
   MAY BE CAUSED BY LARGE STRAIN INCREMENTS. A SMALLER TIME INCREMENT WILL BE 
   USED.
   UNIAXIAL CONSTRAINT COULD NOT BE SATISFIED FOR ELEMENT 600013. THE PROBLEM 
   MAY BE CAUSED BY LARGE STRAIN INCREMENTS. A SMALLER TIME INCREMENT WILL BE 
   USED.
   UNIAXIAL CONSTRAINT COULD NOT BE SATISFIED FOR ELEMENT 5400013. THE PROBLEM 
   MAY BE CAUSED BY LARGE STRAIN INCREMENTS. A SMALLER TIME INCREMENT WILL BE 
   USED.
   UNIAXIAL CONSTRAINT COULD NOT BE SATISFIED FOR ELEMENT 5600013. THE PROBLEM 
   MAY BE CAUSED BY LARGE STRAIN INCREMENTS. A SMALLER TIME INCREMENT WILL BE 
   USED.
   UNIAXIAL CONSTRAINT COULD NOT BE SATISFIED FOR ELEMENT 9300013. THE PROBLEM 
   MAY BE CAUSED BY LARGE STRAIN INCREMENTS. A SMALLER TIME INCREMENT WILL BE 
   USED.
   UNIAXIAL CONSTRAINT COULD NOT BE SATISFIED FOR ELEMENT 9500013. THE PROBLEM 
   MAY BE CAUSED BY LARGE STRAIN INCREMENTS. A SMALLER TIME INCREMENT WILL BE 
   USED.
   UNIAXIAL CONSTRAINT COULD NOT BE SATISFIED FOR ELEMENT 9600013. THE PROBLEM 
   MAY BE CAUSED BY LARGE STRAIN INCREMENTS. A SMALLER TIME INCREMENT WILL BE 
   USED.
   UNIAXIAL CONSTRAINT COULD NOT BE SATISFIED FOR ELEMENT 600014. THE PROBLEM 
   MAY BE CAUSED BY LARGE STRAIN INCREMENTS. A SMALLER TIME INCREMENT WILL BE 
   USED.
   UNIAXIAL CONSTRAINT COULD NOT BE SATISFIED FOR ELEMENT 5100014. THE PROBLEM 
   MAY BE CAUSED BY LARGE STRAIN INCREMENTS. A SMALLER TIME INCREMENT WILL BE 
   USED.
   UNIAXIAL CONSTRAINT COULD NOT BE SATISFIED FOR ELEMENT 5400014. THE PROBLEM 
   MAY BE CAUSED BY LARGE STRAIN INCREMENTS. A SMALLER TIME INCREMENT WILL BE 
   USED.
   UNIAXIAL CONSTRAINT COULD NOT BE SATISFIED FOR ELEMENT 8700014. THE PROBLEM 
   MAY BE CAUSED BY LARGE STRAIN INCREMENTS. A SMALLER TIME INCREMENT WILL BE 
   USED.
   UNIAXIAL CONSTRAINT COULD NOT BE SATISFIED FOR ELEMENT 8800014. THE PROBLEM 
   MAY BE CAUSED BY LARGE STRAIN INCREMENTS. A SMALLER TIME INCREMENT WILL BE 
   USED.
   UNIAXIAL CONSTRAINT COULD NOT BE SATISFIED FOR ELEMENT 8900014. THE PROBLEM 
   MAY BE CAUSED BY LARGE STRAIN INCREMENTS. A SMALLER TIME INCREMENT WILL BE 
   USED.
   UNIAXIAL CONSTRAINT COULD NOT BE SATISFIED FOR ELEMENT 9000014. THE PROBLEM 
   MAY BE CAUSED BY LARGE STRAIN INCREMENTS. A SMALLER TIME INCREMENT WILL BE 
   USED.
   UNIAXIAL CONSTRAINT COULD NOT BE SATISFIED FOR ELEMENT 9100014. THE PROBLEM 
   MAY BE CAUSED BY LARGE STRAIN INCREMENTS. A SMALLER TIME INCREMENT WILL BE 
   USED.
   UNIAXIAL CONSTRAINT COULD NOT BE SATISFIED FOR ELEMENT 9200014. THE PROBLEM 
   MAY BE CAUSED BY LARGE STRAIN INCREMENTS. A SMALLER TIME INCREMENT WILL BE 
   USED.
   UNIAXIAL CONSTRAINT COULD NOT BE SATISFIED FOR ELEMENT 9400014. THE PROBLEM 
   MAY BE CAUSED BY LARGE STRAIN INCREMENTS. A SMALLER TIME INCREMENT WILL BE 
   USED.
   UNIAXIAL CONSTRAINT COULD NOT BE SATISFIED FOR ELEMENT 500015. THE PROBLEM 
   MAY BE CAUSED BY LARGE STRAIN INCREMENTS. A SMALLER TIME INCREMENT WILL BE 
   USED.
   UNIAXIAL CONSTRAINT COULD NOT BE SATISFIED FOR ELEMENT 600015. THE PROBLEM 
   MAY BE CAUSED BY LARGE STRAIN INCREMENTS. A SMALLER TIME INCREMENT WILL BE 
   USED.
   UNIAXIAL CONSTRAINT COULD NOT BE SATISFIED FOR ELEMENT 5100015. THE PROBLEM 
   MAY BE CAUSED BY LARGE STRAIN INCREMENTS. A SMALLER TIME INCREMENT WILL BE 
   USED.
   UNIAXIAL CONSTRAINT COULD NOT BE SATISFIED FOR ELEMENT 5300015. THE PROBLEM 
   MAY BE CAUSED BY LARGE STRAIN INCREMENTS. A SMALLER TIME INCREMENT WILL BE 
   USED.
   UNIAXIAL CONSTRAINT COULD NOT BE SATISFIED FOR ELEMENT 5400015. THE PROBLEM 
   MAY BE CAUSED BY LARGE STRAIN INCREMENTS. A SMALLER TIME INCREMENT WILL BE 
   USED.
   UNIAXIAL CONSTRAINT COULD NOT BE SATISFIED FOR ELEMENT 5500015. THE PROBLEM 
   MAY BE CAUSED BY LARGE STRAIN INCREMENTS. A SMALLER TIME INCREMENT WILL BE 
   USED.
   UNIAXIAL CONSTRAINT COULD NOT BE SATISFIED FOR ELEMENT 8500015. THE PROBLEM 
   MAY BE CAUSED BY LARGE STRAIN INCREMENTS. A SMALLER TIME INCREMENT WILL BE 
   USED.
   UNIAXIAL CONSTRAINT COULD NOT BE SATISFIED FOR ELEMENT 8700015. THE PROBLEM 
   MAY BE CAUSED BY LARGE STRAIN INCREMENTS. A SMALLER TIME INCREMENT WILL BE 
   USED.
   UNIAXIAL CONSTRAINT COULD NOT BE SATISFIED FOR ELEMENT 8800015. THE PROBLEM 
   MAY BE CAUSED BY LARGE STRAIN INCREMENTS. A SMALLER TIME INCREMENT WILL BE 
   USED.
   UNIAXIAL CONSTRAINT COULD NOT BE SATISFIED FOR ELEMENT 9000015. THE PROBLEM 
   MAY BE CAUSED BY LARGE STRAIN INCREMENTS. A SMALLER TIME INCREMENT WILL BE 
   USED.
   UNIAXIAL CONSTRAINT COULD NOT BE SATISFIED FOR ELEMENT 9100015. THE PROBLEM 
   MAY BE CAUSED BY LARGE STRAIN INCREMENTS. A SMALLER TIME INCREMENT WILL BE 
   USED.
   UNIAXIAL CONSTRAINT COULD NOT BE SATISFIED FOR ELEMENT 9200015. THE PROBLEM 
   MAY BE CAUSED BY LARGE STRAIN INCREMENTS. A SMALLER TIME INCREMENT WILL BE 
   USED.
   UNIAXIAL CONSTRAINT COULD NOT BE SATISFIED FOR ELEMENT 5000016. THE PROBLEM 
   MAY BE CAUSED BY LARGE STRAIN INCREMENTS. A SMALLER TIME INCREMENT WILL BE 
   USED.
   UNIAXIAL CONSTRAINT COULD NOT BE SATISFIED FOR ELEMENT 5100016. THE PROBLEM 
   MAY BE CAUSED BY LARGE STRAIN INCREMENTS. A SMALLER TIME INCREMENT WILL BE 
   USED.
   UNIAXIAL CONSTRAINT COULD NOT BE SATISFIED FOR ELEMENT 5200016. THE PROBLEM 
   MAY BE CAUSED BY LARGE STRAIN INCREMENTS. A SMALLER TIME INCREMENT WILL BE 
   USED.
   UNIAXIAL CONSTRAINT COULD NOT BE SATISFIED FOR ELEMENT 5300016. THE PROBLEM 
   MAY BE CAUSED BY LARGE STRAIN INCREMENTS. A SMALLER TIME INCREMENT WILL BE 
   USED.
   UNIAXIAL CONSTRAINT COULD NOT BE SATISFIED FOR ELEMENT 5400016. THE PROBLEM 
   MAY BE CAUSED BY LARGE STRAIN INCREMENTS. A SMALLER TIME INCREMENT WILL BE 
   USED.
   UNIAXIAL CONSTRAINT COULD NOT BE SATISFIED FOR ELEMENT 5600016. THE PROBLEM 
   MAY BE CAUSED BY LARGE STRAIN INCREMENTS. A SMALLER TIME INCREMENT WILL BE 
   USED.
   UNIAXIAL CONSTRAINT COULD NOT BE SATISFIED FOR ELEMENT 5700016. THE PROBLEM 
   MAY BE CAUSED BY LARGE STRAIN INCREMENTS. A SMALLER TIME INCREMENT WILL BE 
   USED.
   UNIAXIAL CONSTRAINT COULD NOT BE SATISFIED FOR ELEMENT 8300016. THE PROBLEM 
   MAY BE CAUSED BY LARGE STRAIN INCREMENTS. A SMALLER TIME INCREMENT WILL BE 
   USED.
   UNIAXIAL CONSTRAINT COULD NOT BE SATISFIED FOR ELEMENT 8400016. THE PROBLEM 
   MAY BE CAUSED BY LARGE STRAIN INCREMENTS. A SMALLER TIME INCREMENT WILL BE 
   USED.
   UNIAXIAL CONSTRAINT COULD NOT BE SATISFIED FOR ELEMENT 8500016. THE PROBLEM 
   MAY BE CAUSED BY LARGE STRAIN INCREMENTS. A SMALLER TIME INCREMENT WILL BE 
   USED.
   UNIAXIAL CONSTRAINT COULD NOT BE SATISFIED FOR ELEMENT 3600017. THE PROBLEM 
   MAY BE CAUSED BY LARGE STRAIN INCREMENTS. A SMALLER TIME INCREMENT WILL BE 
   USED.
   UNIAXIAL CONSTRAINT COULD NOT BE SATISFIED FOR ELEMENT 3700017. THE PROBLEM 
   MAY BE CAUSED BY LARGE STRAIN INCREMENTS. A SMALLER TIME INCREMENT WILL BE 
   USED.
   UNIAXIAL CONSTRAINT COULD NOT BE SATISFIED FOR ELEMENT 4900017. THE PROBLEM 
   MAY BE CAUSED BY LARGE STRAIN INCREMENTS. A SMALLER TIME INCREMENT WILL BE 
   USED.
   UNIAXIAL CONSTRAINT COULD NOT BE SATISFIED FOR ELEMENT 5000017. THE PROBLEM 
   MAY BE CAUSED BY LARGE STRAIN INCREMENTS. A SMALLER TIME INCREMENT WILL BE 
   USED.
   UNIAXIAL CONSTRAINT COULD NOT BE SATISFIED FOR ELEMENT 5100017. THE PROBLEM 
   MAY BE CAUSED BY LARGE STRAIN INCREMENTS. A SMALLER TIME INCREMENT WILL BE 
   USED.
   UNIAXIAL CONSTRAINT COULD NOT BE SATISFIED FOR ELEMENT 5400017. THE PROBLEM 
   MAY BE CAUSED BY LARGE STRAIN INCREMENTS. A SMALLER TIME INCREMENT WILL BE 
   USED.
   UNIAXIAL CONSTRAINT COULD NOT BE SATISFIED FOR ELEMENT 5600017. THE PROBLEM 
   MAY BE CAUSED BY LARGE STRAIN INCREMENTS. A SMALLER TIME INCREMENT WILL BE 
   USED.
   UNIAXIAL CONSTRAINT COULD NOT BE SATISFIED FOR ELEMENT 5700017. THE PROBLEM 
   MAY BE CAUSED BY LARGE STRAIN INCREMENTS. A SMALLER TIME INCREMENT WILL BE 
   USED.
   UNIAXIAL CONSTRAINT COULD NOT BE SATISFIED FOR ELEMENT 5900017. THE PROBLEM 
   MAY BE CAUSED BY LARGE STRAIN INCREMENTS. A SMALLER TIME INCREMENT WILL BE 
   USED.
   UNIAXIAL CONSTRAINT COULD NOT BE SATISFIED FOR ELEMENT 8100017. THE PROBLEM 
   MAY BE CAUSED BY LARGE STRAIN INCREMENTS. A SMALLER TIME INCREMENT WILL BE 
   USED.
   UNIAXIAL CONSTRAINT COULD NOT BE SATISFIED FOR ELEMENT 8300017. THE PROBLEM 
   MAY BE CAUSED BY LARGE STRAIN INCREMENTS. A SMALLER TIME INCREMENT WILL BE 
   USED.
   UNIAXIAL CONSTRAINT COULD NOT BE SATISFIED FOR ELEMENT 8400017. THE PROBLEM 
   MAY BE CAUSED BY LARGE STRAIN INCREMENTS. A SMALLER TIME INCREMENT WILL BE 
   USED.
   UNIAXIAL CONSTRAINT COULD NOT BE SATISFIED FOR ELEMENT 8700017. THE PROBLEM 
   MAY BE CAUSED BY LARGE STRAIN INCREMENTS. A SMALLER TIME INCREMENT WILL BE 
   USED.
   UNIAXIAL CONSTRAINT COULD NOT BE SATISFIED FOR ELEMENT 8800017. THE PROBLEM 
   MAY BE CAUSED BY LARGE STRAIN INCREMENTS. A SMALLER TIME INCREMENT WILL BE 
   USED.
   UNIAXIAL CONSTRAINT COULD NOT BE SATISFIED FOR ELEMENT 3200018. THE PROBLEM 
   MAY BE CAUSED BY LARGE STRAIN INCREMENTS. A SMALLER TIME INCREMENT WILL BE 
   USED.
   UNIAXIAL CONSTRAINT COULD NOT BE SATISFIED FOR ELEMENT 3300018. THE PROBLEM 
   MAY BE CAUSED BY LARGE STRAIN INCREMENTS. A SMALLER TIME INCREMENT WILL BE 
   USED.
   UNIAXIAL CONSTRAINT COULD NOT BE SATISFIED FOR ELEMENT 3400018. THE PROBLEM 
   MAY BE CAUSED BY LARGE STRAIN INCREMENTS. A SMALLER TIME INCREMENT WILL BE 
   USED.
   UNIAXIAL CONSTRAINT COULD NOT BE SATISFIED FOR ELEMENT 3500018. THE PROBLEM 
   MAY BE CAUSED BY LARGE STRAIN INCREMENTS. A SMALLER TIME INCREMENT WILL BE 
   USED.
   UNIAXIAL CONSTRAINT COULD NOT BE SATISFIED FOR ELEMENT 3600018. THE PROBLEM 
   MAY BE CAUSED BY LARGE STRAIN INCREMENTS. A SMALLER TIME INCREMENT WILL BE 
   USED.
   UNIAXIAL CONSTRAINT COULD NOT BE SATISFIED FOR ELEMENT 3700018. THE PROBLEM 
   MAY BE CAUSED BY LARGE STRAIN INCREMENTS. A SMALLER TIME INCREMENT WILL BE 
   USED.
   UNIAXIAL CONSTRAINT COULD NOT BE SATISFIED FOR ELEMENT 3800018. THE PROBLEM 
   MAY BE CAUSED BY LARGE STRAIN INCREMENTS. A SMALLER TIME INCREMENT WILL BE 
   USED.
   UNIAXIAL CONSTRAINT COULD NOT BE SATISFIED FOR ELEMENT 3900018. THE PROBLEM 
   MAY BE CAUSED BY LARGE STRAIN INCREMENTS. A SMALLER TIME INCREMENT WILL BE 
   USED.
   UNIAXIAL CONSTRAINT COULD NOT BE SATISFIED FOR ELEMENT 4200018. THE PROBLEM 
   MAY BE CAUSED BY LARGE STRAIN INCREMENTS. A SMALLER TIME INCREMENT WILL BE 
   USED.
   UNIAXIAL CONSTRAINT COULD NOT BE SATISFIED FOR ELEMENT 4300018. THE PROBLEM 
   MAY BE CAUSED BY LARGE STRAIN INCREMENTS. A SMALLER TIME INCREMENT WILL BE 
   USED.
   UNIAXIAL CONSTRAINT COULD NOT BE SATISFIED FOR ELEMENT 4400018. THE PROBLEM 
   MAY BE CAUSED BY LARGE STRAIN INCREMENTS. A SMALLER TIME INCREMENT WILL BE 
   USED.
   UNIAXIAL CONSTRAINT COULD NOT BE SATISFIED FOR ELEMENT 4500018. THE PROBLEM 
   MAY BE CAUSED BY LARGE STRAIN INCREMENTS. A SMALLER TIME INCREMENT WILL BE 
   USED.
   UNIAXIAL CONSTRAINT COULD NOT BE SATISFIED FOR ELEMENT 4600018. THE PROBLEM 
   MAY BE CAUSED BY LARGE STRAIN INCREMENTS. A SMALLER TIME INCREMENT WILL BE 
   USED.
   UNIAXIAL CONSTRAINT COULD NOT BE SATISFIED FOR ELEMENT 4700018. THE PROBLEM 
   MAY BE CAUSED BY LARGE STRAIN INCREMENTS. A SMALLER TIME INCREMENT WILL BE 
   USED.
   UNIAXIAL CONSTRAINT COULD NOT BE SATISFIED FOR ELEMENT 4800018. THE PROBLEM 
   MAY BE CAUSED BY LARGE STRAIN INCREMENTS. A SMALLER TIME INCREMENT WILL BE 
   USED.
   UNIAXIAL CONSTRAINT COULD NOT BE SATISFIED FOR ELEMENT 5000018. THE PROBLEM 
   MAY BE CAUSED BY LARGE STRAIN INCREMENTS. A SMALLER TIME INCREMENT WILL BE 
   USED.
   UNIAXIAL CONSTRAINT COULD NOT BE SATISFIED FOR ELEMENT 5100018. THE PROBLEM 
   MAY BE CAUSED BY LARGE STRAIN INCREMENTS. A SMALLER TIME INCREMENT WILL BE 
   USED.
   UNIAXIAL CONSTRAINT COULD NOT BE SATISFIED FOR ELEMENT 5300018. THE PROBLEM 
   MAY BE CAUSED BY LARGE STRAIN INCREMENTS. A SMALLER TIME INCREMENT WILL BE 
   USED.
   UNIAXIAL CONSTRAINT COULD NOT BE SATISFIED FOR ELEMENT 5400018. THE PROBLEM 
   MAY BE CAUSED BY LARGE STRAIN INCREMENTS. A SMALLER TIME INCREMENT WILL BE 
   USED.
   UNIAXIAL CONSTRAINT COULD NOT BE SATISFIED FOR ELEMENT 5500018. THE PROBLEM 
   MAY BE CAUSED BY LARGE STRAIN INCREMENTS. A SMALLER TIME INCREMENT WILL BE 
   USED.
   UNIAXIAL CONSTRAINT COULD NOT BE SATISFIED FOR ELEMENT 5600018. THE PROBLEM 
   MAY BE CAUSED BY LARGE STRAIN INCREMENTS. A SMALLER TIME INCREMENT WILL BE 
   USED.
   UNIAXIAL CONSTRAINT COULD NOT BE SATISFIED FOR ELEMENT 5700018. THE PROBLEM 
   MAY BE CAUSED BY LARGE STRAIN INCREMENTS. A SMALLER TIME INCREMENT WILL BE 
   USED.
   UNIAXIAL CONSTRAINT COULD NOT BE SATISFIED FOR ELEMENT 5800018. THE PROBLEM 
   MAY BE CAUSED BY LARGE STRAIN INCREMENTS. A SMALLER TIME INCREMENT WILL BE 
   USED.
   UNIAXIAL CONSTRAINT COULD NOT BE SATISFIED FOR ELEMENT 5900018. THE PROBLEM 
   MAY BE CAUSED BY LARGE STRAIN INCREMENTS. A SMALLER TIME INCREMENT WILL BE 
   USED.
   UNIAXIAL CONSTRAINT COULD NOT BE SATISFIED FOR ELEMENT 7900018. THE PROBLEM 
   MAY BE CAUSED BY LARGE STRAIN INCREMENTS. A SMALLER TIME INCREMENT WILL BE 
   USED.
   UNIAXIAL CONSTRAINT COULD NOT BE SATISFIED FOR ELEMENT 8000018. THE PROBLEM 
   MAY BE CAUSED BY LARGE STRAIN INCREMENTS. A SMALLER TIME INCREMENT WILL BE 
   USED.
   UNIAXIAL CONSTRAINT COULD NOT BE SATISFIED FOR ELEMENT 8100018. THE PROBLEM 
   MAY BE CAUSED BY LARGE STRAIN INCREMENTS. A SMALLER TIME INCREMENT WILL BE 
   USED.
   UNIAXIAL CONSTRAINT COULD NOT BE SATISFIED FOR ELEMENT 8200018. THE PROBLEM 
   MAY BE CAUSED BY LARGE STRAIN INCREMENTS. A SMALLER TIME INCREMENT WILL BE 
   USED.
   UNIAXIAL CONSTRAINT COULD NOT BE SATISFIED FOR ELEMENT 8500018. THE PROBLEM 
   MAY BE CAUSED BY LARGE STRAIN INCREMENTS. A SMALLER TIME INCREMENT WILL BE 
   USED.
   UNIAXIAL CONSTRAINT COULD NOT BE SATISFIED FOR ELEMENT 8600018. THE PROBLEM 
   MAY BE CAUSED BY LARGE STRAIN INCREMENTS. A SMALLER TIME INCREMENT WILL BE 
   USED.
   UNIAXIAL CONSTRAINT COULD NOT BE SATISFIED FOR ELEMENT 8700018. THE PROBLEM 
   MAY BE CAUSED BY LARGE STRAIN INCREMENTS. A SMALLER TIME INCREMENT WILL BE 
   USED.
   UNIAXIAL CONSTRAINT COULD NOT BE SATISFIED FOR ELEMENT 8800018. THE PROBLEM 
   MAY BE CAUSED BY LARGE STRAIN INCREMENTS. A SMALLER TIME INCREMENT WILL BE 
   USED.
   UNIAXIAL CONSTRAINT COULD NOT BE SATISFIED FOR ELEMENT 8900018. THE PROBLEM 
   MAY BE CAUSED BY LARGE STRAIN INCREMENTS. A SMALLER TIME INCREMENT WILL BE 
   USED.
   UNIAXIAL CONSTRAINT COULD NOT BE SATISFIED FOR ELEMENT 500019. THE PROBLEM 
   MAY BE CAUSED BY LARGE STRAIN INCREMENTS. A SMALLER TIME INCREMENT WILL BE 
   USED.
   UNIAXIAL CONSTRAINT COULD NOT BE SATISFIED FOR ELEMENT 3000019. THE PROBLEM 
   MAY BE CAUSED BY LARGE STRAIN INCREMENTS. A SMALLER TIME INCREMENT WILL BE 
   USED.
   UNIAXIAL CONSTRAINT COULD NOT BE SATISFIED FOR ELEMENT 3200019. THE PROBLEM 
   MAY BE CAUSED BY LARGE STRAIN INCREMENTS. A SMALLER TIME INCREMENT WILL BE 
   USED.
   UNIAXIAL CONSTRAINT COULD NOT BE SATISFIED FOR ELEMENT 3300019. THE PROBLEM 
   MAY BE CAUSED BY LARGE STRAIN INCREMENTS. A SMALLER TIME INCREMENT WILL BE 
   USED.
   UNIAXIAL CONSTRAINT COULD NOT BE SATISFIED FOR ELEMENT 3400019. THE PROBLEM 
   MAY BE CAUSED BY LARGE STRAIN INCREMENTS. A SMALLER TIME INCREMENT WILL BE 
   USED.
   UNIAXIAL CONSTRAINT COULD NOT BE SATISFIED FOR ELEMENT 3500019. THE PROBLEM 
   MAY BE CAUSED BY LARGE STRAIN INCREMENTS. A SMALLER TIME INCREMENT WILL BE 
   USED.
   UNIAXIAL CONSTRAINT COULD NOT BE SATISFIED FOR ELEMENT 3600019. THE PROBLEM 
   MAY BE CAUSED BY LARGE STRAIN INCREMENTS. A SMALLER TIME INCREMENT WILL BE 
   USED.
   UNIAXIAL CONSTRAINT COULD NOT BE SATISFIED FOR ELEMENT 4000019. THE PROBLEM 
   MAY BE CAUSED BY LARGE STRAIN INCREMENTS. A SMALLER TIME INCREMENT WILL BE 
   USED.
   UNIAXIAL CONSTRAINT COULD NOT BE SATISFIED FOR ELEMENT 4100019. THE PROBLEM 
   MAY BE CAUSED BY LARGE STRAIN INCREMENTS. A SMALLER TIME INCREMENT WILL BE 
   USED.
   UNIAXIAL CONSTRAINT COULD NOT BE SATISFIED FOR ELEMENT 4200019. THE PROBLEM 
   MAY BE CAUSED BY LARGE STRAIN INCREMENTS. A SMALLER TIME INCREMENT WILL BE 
   USED.
   UNIAXIAL CONSTRAINT COULD NOT BE SATISFIED FOR ELEMENT 4300019. THE PROBLEM 
   MAY BE CAUSED BY LARGE STRAIN INCREMENTS. A SMALLER TIME INCREMENT WILL BE 
   USED.
   UNIAXIAL CONSTRAINT COULD NOT BE SATISFIED FOR ELEMENT 4400019. THE PROBLEM 
   MAY BE CAUSED BY LARGE STRAIN INCREMENTS. A SMALLER TIME INCREMENT WILL BE 
   USED.
   UNIAXIAL CONSTRAINT COULD NOT BE SATISFIED FOR ELEMENT 4500019. THE PROBLEM 
   MAY BE CAUSED BY LARGE STRAIN INCREMENTS. A SMALLER TIME INCREMENT WILL BE 
   USED.
   UNIAXIAL CONSTRAINT COULD NOT BE SATISFIED FOR ELEMENT 4600019. THE PROBLEM 
   MAY BE CAUSED BY LARGE STRAIN INCREMENTS. A SMALLER TIME INCREMENT WILL BE 
   USED.
   UNIAXIAL CONSTRAINT COULD NOT BE SATISFIED FOR ELEMENT 4700019. THE PROBLEM 
   MAY BE CAUSED BY LARGE STRAIN INCREMENTS. A SMALLER TIME INCREMENT WILL BE 
   USED.
   UNIAXIAL CONSTRAINT COULD NOT BE SATISFIED FOR ELEMENT 4800019. THE PROBLEM 
   MAY BE CAUSED BY LARGE STRAIN INCREMENTS. A SMALLER TIME INCREMENT WILL BE 
   USED.
   UNIAXIAL CONSTRAINT COULD NOT BE SATISFIED FOR ELEMENT 4900019. THE PROBLEM 
   MAY BE CAUSED BY LARGE STRAIN INCREMENTS. A SMALLER TIME INCREMENT WILL BE 
   USED.
   UNIAXIAL CONSTRAINT COULD NOT BE SATISFIED FOR ELEMENT 5000019. THE PROBLEM 
   MAY BE CAUSED BY LARGE STRAIN INCREMENTS. A SMALLER TIME INCREMENT WILL BE 
   USED.
   UNIAXIAL CONSTRAINT COULD NOT BE SATISFIED FOR ELEMENT 5400019. THE PROBLEM 
   MAY BE CAUSED BY LARGE STRAIN INCREMENTS. A SMALLER TIME INCREMENT WILL BE 
   USED.
   UNIAXIAL CONSTRAINT COULD NOT BE SATISFIED FOR ELEMENT 5600019. THE PROBLEM 
   MAY BE CAUSED BY LARGE STRAIN INCREMENTS. A SMALLER TIME INCREMENT WILL BE 
   USED.
   UNIAXIAL CONSTRAINT COULD NOT BE SATISFIED FOR ELEMENT 5800019. THE PROBLEM 
   MAY BE CAUSED BY LARGE STRAIN INCREMENTS. A SMALLER TIME INCREMENT WILL BE 
   USED.
   UNIAXIAL CONSTRAINT COULD NOT BE SATISFIED FOR ELEMENT 5900019. THE PROBLEM 
   MAY BE CAUSED BY LARGE STRAIN INCREMENTS. A SMALLER TIME INCREMENT WILL BE 
   USED.
   UNIAXIAL CONSTRAINT COULD NOT BE SATISFIED FOR ELEMENT 7800019. THE PROBLEM 
   MAY BE CAUSED BY LARGE STRAIN INCREMENTS. A SMALLER TIME INCREMENT WILL BE 
   USED.
   UNIAXIAL CONSTRAINT COULD NOT BE SATISFIED FOR ELEMENT 8000019. THE PROBLEM 
   MAY BE CAUSED BY LARGE STRAIN INCREMENTS. A SMALLER TIME INCREMENT WILL BE 
   USED.
   UNIAXIAL CONSTRAINT COULD NOT BE SATISFIED FOR ELEMENT 8100019. THE PROBLEM 
   MAY BE CAUSED BY LARGE STRAIN INCREMENTS. A SMALLER TIME INCREMENT WILL BE 
   USED.
   UNIAXIAL CONSTRAINT COULD NOT BE SATISFIED FOR ELEMENT 8600019. THE PROBLEM 
   MAY BE CAUSED BY LARGE STRAIN INCREMENTS. A SMALLER TIME INCREMENT WILL BE 
   USED.
   UNIAXIAL CONSTRAINT COULD NOT BE SATISFIED FOR ELEMENT 8800019. THE PROBLEM 
   MAY BE CAUSED BY LARGE STRAIN INCREMENTS. A SMALLER TIME INCREMENT WILL BE 
   USED.
   UNIAXIAL CONSTRAINT COULD NOT BE SATISFIED FOR ELEMENT 400020. THE PROBLEM 
   MAY BE CAUSED BY LARGE STRAIN INCREMENTS. A SMALLER TIME INCREMENT WILL BE 
   USED.
   UNIAXIAL CONSTRAINT COULD NOT BE SATISFIED FOR ELEMENT 3000020. THE PROBLEM 
   MAY BE CAUSED BY LARGE STRAIN INCREMENTS. A SMALLER TIME INCREMENT WILL BE 
   USED.
   UNIAXIAL CONSTRAINT COULD NOT BE SATISFIED FOR ELEMENT 3100020. THE PROBLEM 
   MAY BE CAUSED BY LARGE STRAIN INCREMENTS. A SMALLER TIME INCREMENT WILL BE 
   USED.
   UNIAXIAL CONSTRAINT COULD NOT BE SATISFIED FOR ELEMENT 3200020. THE PROBLEM 
   MAY BE CAUSED BY LARGE STRAIN INCREMENTS. A SMALLER TIME INCREMENT WILL BE 
   USED.
   UNIAXIAL CONSTRAINT COULD NOT BE SATISFIED FOR ELEMENT 3300020. THE PROBLEM 
   MAY BE CAUSED BY LARGE STRAIN INCREMENTS. A SMALLER TIME INCREMENT WILL BE 
   USED.
   UNIAXIAL CONSTRAINT COULD NOT BE SATISFIED FOR ELEMENT 3400020. THE PROBLEM 
   MAY BE CAUSED BY LARGE STRAIN INCREMENTS. A SMALLER TIME INCREMENT WILL BE 
   USED.
   UNIAXIAL CONSTRAINT COULD NOT BE SATISFIED FOR ELEMENT 3500020. THE PROBLEM 
   MAY BE CAUSED BY LARGE STRAIN INCREMENTS. A SMALLER TIME INCREMENT WILL BE 
   USED.
   UNIAXIAL CONSTRAINT COULD NOT BE SATISFIED FOR ELEMENT 3600020. THE PROBLEM 
   MAY BE CAUSED BY LARGE STRAIN INCREMENTS. A SMALLER TIME INCREMENT WILL BE 
   USED.
   UNIAXIAL CONSTRAINT COULD NOT BE SATISFIED FOR ELEMENT 3700020. THE PROBLEM 
   MAY BE CAUSED BY LARGE STRAIN INCREMENTS. A SMALLER TIME INCREMENT WILL BE 
   USED.
   UNIAXIAL CONSTRAINT COULD NOT BE SATISFIED FOR ELEMENT 3900020. THE PROBLEM 
   MAY BE CAUSED BY LARGE STRAIN INCREMENTS. A SMALLER TIME INCREMENT WILL BE 
   USED.
   UNIAXIAL CONSTRAINT COULD NOT BE SATISFIED FOR ELEMENT 4000020. THE PROBLEM 
   MAY BE CAUSED BY LARGE STRAIN INCREMENTS. A SMALLER TIME INCREMENT WILL BE 
   USED.
   UNIAXIAL CONSTRAINT COULD NOT BE SATISFIED FOR ELEMENT 4100020. THE PROBLEM 
   MAY BE CAUSED BY LARGE STRAIN INCREMENTS. A SMALLER TIME INCREMENT WILL BE 
   USED.
   UNIAXIAL CONSTRAINT COULD NOT BE SATISFIED FOR ELEMENT 4200020. THE PROBLEM 
   MAY BE CAUSED BY LARGE STRAIN INCREMENTS. A SMALLER TIME INCREMENT WILL BE 
   USED.
   UNIAXIAL CONSTRAINT COULD NOT BE SATISFIED FOR ELEMENT 4300020. THE PROBLEM 
   MAY BE CAUSED BY LARGE STRAIN INCREMENTS. A SMALLER TIME INCREMENT WILL BE 
   USED.
   UNIAXIAL CONSTRAINT COULD NOT BE SATISFIED FOR ELEMENT 4400020. THE PROBLEM 
   MAY BE CAUSED BY LARGE STRAIN INCREMENTS. A SMALLER TIME INCREMENT WILL BE 
   USED.
   UNIAXIAL CONSTRAINT COULD NOT BE SATISFIED FOR ELEMENT 4600020. THE PROBLEM 
   MAY BE CAUSED BY LARGE STRAIN INCREMENTS. A SMALLER TIME INCREMENT WILL BE 
   USED.
   UNIAXIAL CONSTRAINT COULD NOT BE SATISFIED FOR ELEMENT 4700020. THE PROBLEM 
   MAY BE CAUSED BY LARGE STRAIN INCREMENTS. A SMALLER TIME INCREMENT WILL BE 
   USED.
   UNIAXIAL CONSTRAINT COULD NOT BE SATISFIED FOR ELEMENT 4900020. THE PROBLEM 
   MAY BE CAUSED BY LARGE STRAIN INCREMENTS. A SMALLER TIME INCREMENT WILL BE 
   USED.
   UNIAXIAL CONSTRAINT COULD NOT BE SATISFIED FOR ELEMENT 5000020. THE PROBLEM 
   MAY BE CAUSED BY LARGE STRAIN INCREMENTS. A SMALLER TIME INCREMENT WILL BE 
   USED.
   UNIAXIAL CONSTRAINT COULD NOT BE SATISFIED FOR ELEMENT 5100020. THE PROBLEM 
   MAY BE CAUSED BY LARGE STRAIN INCREMENTS. A SMALLER TIME INCREMENT WILL BE 
   USED.
   UNIAXIAL CONSTRAINT COULD NOT BE SATISFIED FOR ELEMENT 5200020. THE PROBLEM 
   MAY BE CAUSED BY LARGE STRAIN INCREMENTS. A SMALLER TIME INCREMENT WILL BE 
   USED.
   UNIAXIAL CONSTRAINT COULD NOT BE SATISFIED FOR ELEMENT 5300020. THE PROBLEM 
   MAY BE CAUSED BY LARGE STRAIN INCREMENTS. A SMALLER TIME INCREMENT WILL BE 
   USED.
   UNIAXIAL CONSTRAINT COULD NOT BE SATISFIED FOR ELEMENT 5400020. THE PROBLEM 
   MAY BE CAUSED BY LARGE STRAIN INCREMENTS. A SMALLER TIME INCREMENT WILL BE 
   USED.
   UNIAXIAL CONSTRAINT COULD NOT BE SATISFIED FOR ELEMENT 5500020. THE PROBLEM 
   MAY BE CAUSED BY LARGE STRAIN INCREMENTS. A SMALLER TIME INCREMENT WILL BE 
   USED.
   UNIAXIAL CONSTRAINT COULD NOT BE SATISFIED FOR ELEMENT 5600020. THE PROBLEM 
   MAY BE CAUSED BY LARGE STRAIN INCREMENTS. A SMALLER TIME INCREMENT WILL BE 
   USED.
   UNIAXIAL CONSTRAINT COULD NOT BE SATISFIED FOR ELEMENT 5700020. THE PROBLEM 
   MAY BE CAUSED BY LARGE STRAIN INCREMENTS. A SMALLER TIME INCREMENT WILL BE 
   USED.
   UNIAXIAL CONSTRAINT COULD NOT BE SATISFIED FOR ELEMENT 5800020. THE PROBLEM 
   MAY BE CAUSED BY LARGE STRAIN INCREMENTS. A SMALLER TIME INCREMENT WILL BE 
   USED.
   UNIAXIAL CONSTRAINT COULD NOT BE SATISFIED FOR ELEMENT 5900020. THE PROBLEM 
   MAY BE CAUSED BY LARGE STRAIN INCREMENTS. A SMALLER TIME INCREMENT WILL BE 
   USED.
   UNIAXIAL CONSTRAINT COULD NOT BE SATISFIED FOR ELEMENT 6000020. THE PROBLEM 
   MAY BE CAUSED BY LARGE STRAIN INCREMENTS. A SMALLER TIME INCREMENT WILL BE 
   USED.
   UNIAXIAL CONSTRAINT COULD NOT BE SATISFIED FOR ELEMENT 6100020. THE PROBLEM 
   MAY BE CAUSED BY LARGE STRAIN INCREMENTS. A SMALLER TIME INCREMENT WILL BE 
   USED.
   UNIAXIAL CONSTRAINT COULD NOT BE SATISFIED FOR ELEMENT 7700020. THE PROBLEM 
   MAY BE CAUSED BY LARGE STRAIN INCREMENTS. A SMALLER TIME INCREMENT WILL BE 
   USED.
   UNIAXIAL CONSTRAINT COULD NOT BE SATISFIED FOR ELEMENT 7800020. THE PROBLEM 
   MAY BE CAUSED BY LARGE STRAIN INCREMENTS. A SMALLER TIME INCREMENT WILL BE 
   USED.
   UNIAXIAL CONSTRAINT COULD NOT BE SATISFIED FOR ELEMENT 8000020. THE PROBLEM 
   MAY BE CAUSED BY LARGE STRAIN INCREMENTS. A SMALLER TIME INCREMENT WILL BE 
   USED.
   UNIAXIAL CONSTRAINT COULD NOT BE SATISFIED FOR ELEMENT 8100020. THE PROBLEM 
   MAY BE CAUSED BY LARGE STRAIN INCREMENTS. A SMALLER TIME INCREMENT WILL BE 
   USED.
   UNIAXIAL CONSTRAINT COULD NOT BE SATISFIED FOR ELEMENT 8200020. THE PROBLEM 
   MAY BE CAUSED BY LARGE STRAIN INCREMENTS. A SMALLER TIME INCREMENT WILL BE 
   USED.
   UNIAXIAL CONSTRAINT COULD NOT BE SATISFIED FOR ELEMENT 8600020. THE PROBLEM 
   MAY BE CAUSED BY LARGE STRAIN INCREMENTS. A SMALLER TIME INCREMENT WILL BE 
   USED.
   UNIAXIAL CONSTRAINT COULD NOT BE SATISFIED FOR ELEMENT 8700020. THE PROBLEM 
   MAY BE CAUSED BY LARGE STRAIN INCREMENTS. A SMALLER TIME INCREMENT WILL BE 
   USED.
   UNIAXIAL CONSTRAINT COULD NOT BE SATISFIED FOR ELEMENT 400021. THE PROBLEM 
   MAY BE CAUSED BY LARGE STRAIN INCREMENTS. A SMALLER TIME INCREMENT WILL BE 
   USED.
   UNIAXIAL CONSTRAINT COULD NOT BE SATISFIED FOR ELEMENT 500021. THE PROBLEM 
   MAY BE CAUSED BY LARGE STRAIN INCREMENTS. A SMALLER TIME INCREMENT WILL BE 
   USED.
   UNIAXIAL CONSTRAINT COULD NOT BE SATISFIED FOR ELEMENT 3100021. THE PROBLEM 
   MAY BE CAUSED BY LARGE STRAIN INCREMENTS. A SMALLER TIME INCREMENT WILL BE 
   USED.
   UNIAXIAL CONSTRAINT COULD NOT BE SATISFIED FOR ELEMENT 3200021. THE PROBLEM 
   MAY BE CAUSED BY LARGE STRAIN INCREMENTS. A SMALLER TIME INCREMENT WILL BE 
   USED.
   UNIAXIAL CONSTRAINT COULD NOT BE SATISFIED FOR ELEMENT 3300021. THE PROBLEM 
   MAY BE CAUSED BY LARGE STRAIN INCREMENTS. A SMALLER TIME INCREMENT WILL BE 
   USED.
   UNIAXIAL CONSTRAINT COULD NOT BE SATISFIED FOR ELEMENT 3500021. THE PROBLEM 
   MAY BE CAUSED BY LARGE STRAIN INCREMENTS. A SMALLER TIME INCREMENT WILL BE 
   USED.
   UNIAXIAL CONSTRAINT COULD NOT BE SATISFIED FOR ELEMENT 3600021. THE PROBLEM 
   MAY BE CAUSED BY LARGE STRAIN INCREMENTS. A SMALLER TIME INCREMENT WILL BE 
   USED.
   UNIAXIAL CONSTRAINT COULD NOT BE SATISFIED FOR ELEMENT 3800021. THE PROBLEM 
   MAY BE CAUSED BY LARGE STRAIN INCREMENTS. A SMALLER TIME INCREMENT WILL BE 
   USED.
   UNIAXIAL CONSTRAINT COULD NOT BE SATISFIED FOR ELEMENT 3900021. THE PROBLEM 
   MAY BE CAUSED BY LARGE STRAIN INCREMENTS. A SMALLER TIME INCREMENT WILL BE 
   USED.
   UNIAXIAL CONSTRAINT COULD NOT BE SATISFIED FOR ELEMENT 4000021. THE PROBLEM 
   MAY BE CAUSED BY LARGE STRAIN INCREMENTS. A SMALLER TIME INCREMENT WILL BE 
   USED.
   UNIAXIAL CONSTRAINT COULD NOT BE SATISFIED FOR ELEMENT 4100021. THE PROBLEM 
   MAY BE CAUSED BY LARGE STRAIN INCREMENTS. A SMALLER TIME INCREMENT WILL BE 
   USED.
   UNIAXIAL CONSTRAINT COULD NOT BE SATISFIED FOR ELEMENT 4200021. THE PROBLEM 
   MAY BE CAUSED BY LARGE STRAIN INCREMENTS. A SMALLER TIME INCREMENT WILL BE 
   USED.
   UNIAXIAL CONSTRAINT COULD NOT BE SATISFIED FOR ELEMENT 4300021. THE PROBLEM 
   MAY BE CAUSED BY LARGE STRAIN INCREMENTS. A SMALLER TIME INCREMENT WILL BE 
   USED.
   UNIAXIAL CONSTRAINT COULD NOT BE SATISFIED FOR ELEMENT 4400021. THE PROBLEM 
   MAY BE CAUSED BY LARGE STRAIN INCREMENTS. A SMALLER TIME INCREMENT WILL BE 
   USED.
   UNIAXIAL CONSTRAINT COULD NOT BE SATISFIED FOR ELEMENT 4500021. THE PROBLEM 
   MAY BE CAUSED BY LARGE STRAIN INCREMENTS. A SMALLER TIME INCREMENT WILL BE 
   USED.
   UNIAXIAL CONSTRAINT COULD NOT BE SATISFIED FOR ELEMENT 4600021. THE PROBLEM 
   MAY BE CAUSED BY LARGE STRAIN INCREMENTS. A SMALLER TIME INCREMENT WILL BE 
   USED.
   UNIAXIAL CONSTRAINT COULD NOT BE SATISFIED FOR ELEMENT 4700021. THE PROBLEM 
   MAY BE CAUSED BY LARGE STRAIN INCREMENTS. A SMALLER TIME INCREMENT WILL BE 
   USED.
   UNIAXIAL CONSTRAINT COULD NOT BE SATISFIED FOR ELEMENT 4900021. THE PROBLEM 
   MAY BE CAUSED BY LARGE STRAIN INCREMENTS. A SMALLER TIME INCREMENT WILL BE 
   USED.
   UNIAXIAL CONSTRAINT COULD NOT BE SATISFIED FOR ELEMENT 5200021. THE PROBLEM 
   MAY BE CAUSED BY LARGE STRAIN INCREMENTS. A SMALLER TIME INCREMENT WILL BE 
   USED.
   UNIAXIAL CONSTRAINT COULD NOT BE SATISFIED FOR ELEMENT 5300021. THE PROBLEM 
   MAY BE CAUSED BY LARGE STRAIN INCREMENTS. A SMALLER TIME INCREMENT WILL BE 
   USED.
   UNIAXIAL CONSTRAINT COULD NOT BE SATISFIED FOR ELEMENT 5400021. THE PROBLEM 
   MAY BE CAUSED BY LARGE STRAIN INCREMENTS. A SMALLER TIME INCREMENT WILL BE 
   USED.
   UNIAXIAL CONSTRAINT COULD NOT BE SATISFIED FOR ELEMENT 5500021. THE PROBLEM 
   MAY BE CAUSED BY LARGE STRAIN INCREMENTS. A SMALLER TIME INCREMENT WILL BE 
   USED.
   UNIAXIAL CONSTRAINT COULD NOT BE SATISFIED FOR ELEMENT 5700021. THE PROBLEM 
   MAY BE CAUSED BY LARGE STRAIN INCREMENTS. A SMALLER TIME INCREMENT WILL BE 
   USED.
   UNIAXIAL CONSTRAINT COULD NOT BE SATISFIED FOR ELEMENT 5800021. THE PROBLEM 
   MAY BE CAUSED BY LARGE STRAIN INCREMENTS. A SMALLER TIME INCREMENT WILL BE 
   USED.
   UNIAXIAL CONSTRAINT COULD NOT BE SATISFIED FOR ELEMENT 6000021. THE PROBLEM 
   MAY BE CAUSED BY LARGE STRAIN INCREMENTS. A SMALLER TIME INCREMENT WILL BE 
   USED.
   UNIAXIAL CONSTRAINT COULD NOT BE SATISFIED FOR ELEMENT 6100021. THE PROBLEM 
   MAY BE CAUSED BY LARGE STRAIN INCREMENTS. A SMALLER TIME INCREMENT WILL BE 
   USED.
   UNIAXIAL CONSTRAINT COULD NOT BE SATISFIED FOR ELEMENT 7700021. THE PROBLEM 
   MAY BE CAUSED BY LARGE STRAIN INCREMENTS. A SMALLER TIME INCREMENT WILL BE 
   USED.
   UNIAXIAL CONSTRAINT COULD NOT BE SATISFIED FOR ELEMENT 7800021. THE PROBLEM 
   MAY BE CAUSED BY LARGE STRAIN INCREMENTS. A SMALLER TIME INCREMENT WILL BE 
   USED.
   UNIAXIAL CONSTRAINT COULD NOT BE SATISFIED FOR ELEMENT 7900021. THE PROBLEM 
   MAY BE CAUSED BY LARGE STRAIN INCREMENTS. A SMALLER TIME INCREMENT WILL BE 
   USED.
   UNIAXIAL CONSTRAINT COULD NOT BE SATISFIED FOR ELEMENT 8000021. THE PROBLEM 
   MAY BE CAUSED BY LARGE STRAIN INCREMENTS. A SMALLER TIME INCREMENT WILL BE 
   USED.
   UNIAXIAL CONSTRAINT COULD NOT BE SATISFIED FOR ELEMENT 8100021. THE PROBLEM 
   MAY BE CAUSED BY LARGE STRAIN INCREMENTS. A SMALLER TIME INCREMENT WILL BE 
   USED.
   UNIAXIAL CONSTRAINT COULD NOT BE SATISFIED FOR ELEMENT 8200021. THE PROBLEM 
   MAY BE CAUSED BY LARGE STRAIN INCREMENTS. A SMALLER TIME INCREMENT WILL BE 
   USED.
   UNIAXIAL CONSTRAINT COULD NOT BE SATISFIED FOR ELEMENT 8500021. THE PROBLEM 
   MAY BE CAUSED BY LARGE STRAIN INCREMENTS. A SMALLER TIME INCREMENT WILL BE 
   USED.
   UNIAXIAL CONSTRAINT COULD NOT BE SATISFIED FOR ELEMENT 8700021. THE PROBLEM 
   MAY BE CAUSED BY LARGE STRAIN INCREMENTS. A SMALLER TIME INCREMENT WILL BE 
   USED.
   UNIAXIAL CONSTRAINT COULD NOT BE SATISFIED FOR ELEMENT 400022. THE PROBLEM 
   MAY BE CAUSED BY LARGE STRAIN INCREMENTS. A SMALLER TIME INCREMENT WILL BE 
   USED.
   UNIAXIAL CONSTRAINT COULD NOT BE SATISFIED FOR ELEMENT 500022. THE PROBLEM 
   MAY BE CAUSED BY LARGE STRAIN INCREMENTS. A SMALLER TIME INCREMENT WILL BE 
   USED.
   UNIAXIAL CONSTRAINT COULD NOT BE SATISFIED FOR ELEMENT 3000022. THE PROBLEM 
   MAY BE CAUSED BY LARGE STRAIN INCREMENTS. A SMALLER TIME INCREMENT WILL BE 
   USED.
   UNIAXIAL CONSTRAINT COULD NOT BE SATISFIED FOR ELEMENT 3100022. THE PROBLEM 
   MAY BE CAUSED BY LARGE STRAIN INCREMENTS. A SMALLER TIME INCREMENT WILL BE 
   USED.
   UNIAXIAL CONSTRAINT COULD NOT BE SATISFIED FOR ELEMENT 3200022. THE PROBLEM 
   MAY BE CAUSED BY LARGE STRAIN INCREMENTS. A SMALLER TIME INCREMENT WILL BE 
   USED.
   UNIAXIAL CONSTRAINT COULD NOT BE SATISFIED FOR ELEMENT 3400022. THE PROBLEM 
   MAY BE CAUSED BY LARGE STRAIN INCREMENTS. A SMALLER TIME INCREMENT WILL BE 
   USED.
   UNIAXIAL CONSTRAINT COULD NOT BE SATISFIED FOR ELEMENT 3500022. THE PROBLEM 
   MAY BE CAUSED BY LARGE STRAIN INCREMENTS. A SMALLER TIME INCREMENT WILL BE 
   USED.
   UNIAXIAL CONSTRAINT COULD NOT BE SATISFIED FOR ELEMENT 3600022. THE PROBLEM 
   MAY BE CAUSED BY LARGE STRAIN INCREMENTS. A SMALLER TIME INCREMENT WILL BE 
   USED.
   UNIAXIAL CONSTRAINT COULD NOT BE SATISFIED FOR ELEMENT 3700022. THE PROBLEM 
   MAY BE CAUSED BY LARGE STRAIN INCREMENTS. A SMALLER TIME INCREMENT WILL BE 
   USED.
   UNIAXIAL CONSTRAINT COULD NOT BE SATISFIED FOR ELEMENT 3800022. THE PROBLEM 
   MAY BE CAUSED BY LARGE STRAIN INCREMENTS. A SMALLER TIME INCREMENT WILL BE 
   USED.
   UNIAXIAL CONSTRAINT COULD NOT BE SATISFIED FOR ELEMENT 3900022. THE PROBLEM 
   MAY BE CAUSED BY LARGE STRAIN INCREMENTS. A SMALLER TIME INCREMENT WILL BE 
   USED.
   UNIAXIAL CONSTRAINT COULD NOT BE SATISFIED FOR ELEMENT 4100022. THE PROBLEM 
   MAY BE CAUSED BY LARGE STRAIN INCREMENTS. A SMALLER TIME INCREMENT WILL BE 
   USED.
   UNIAXIAL CONSTRAINT COULD NOT BE SATISFIED FOR ELEMENT 4200022. THE PROBLEM 
   MAY BE CAUSED BY LARGE STRAIN INCREMENTS. A SMALLER TIME INCREMENT WILL BE 
   USED.
   UNIAXIAL CONSTRAINT COULD NOT BE SATISFIED FOR ELEMENT 4300022. THE PROBLEM 
   MAY BE CAUSED BY LARGE STRAIN INCREMENTS. A SMALLER TIME INCREMENT WILL BE 
   USED.
   UNIAXIAL CONSTRAINT COULD NOT BE SATISFIED FOR ELEMENT 4400022. THE PROBLEM 
   MAY BE CAUSED BY LARGE STRAIN INCREMENTS. A SMALLER TIME INCREMENT WILL BE 
   USED.
   UNIAXIAL CONSTRAINT COULD NOT BE SATISFIED FOR ELEMENT 4600022. THE PROBLEM 
   MAY BE CAUSED BY LARGE STRAIN INCREMENTS. A SMALLER TIME INCREMENT WILL BE 
   USED.
   UNIAXIAL CONSTRAINT COULD NOT BE SATISFIED FOR ELEMENT 4800022. THE PROBLEM 
   MAY BE CAUSED BY LARGE STRAIN INCREMENTS. A SMALLER TIME INCREMENT WILL BE 
   USED.
   UNIAXIAL CONSTRAINT COULD NOT BE SATISFIED FOR ELEMENT 4900022. THE PROBLEM 
   MAY BE CAUSED BY LARGE STRAIN INCREMENTS. A SMALLER TIME INCREMENT WILL BE 
   USED.
   UNIAXIAL CONSTRAINT COULD NOT BE SATISFIED FOR ELEMENT 5000022. THE PROBLEM 
   MAY BE CAUSED BY LARGE STRAIN INCREMENTS. A SMALLER TIME INCREMENT WILL BE 
   USED.
   UNIAXIAL CONSTRAINT COULD NOT BE SATISFIED FOR ELEMENT 5200022. THE PROBLEM 
   MAY BE CAUSED BY LARGE STRAIN INCREMENTS. A SMALLER TIME INCREMENT WILL BE 
   USED.
   UNIAXIAL CONSTRAINT COULD NOT BE SATISFIED FOR ELEMENT 5300022. THE PROBLEM 
   MAY BE CAUSED BY LARGE STRAIN INCREMENTS. A SMALLER TIME INCREMENT WILL BE 
   USED.
   UNIAXIAL CONSTRAINT COULD NOT BE SATISFIED FOR ELEMENT 5500022. THE PROBLEM 
   MAY BE CAUSED BY LARGE STRAIN INCREMENTS. A SMALLER TIME INCREMENT WILL BE 
   USED.
   UNIAXIAL CONSTRAINT COULD NOT BE SATISFIED FOR ELEMENT 5600022. THE PROBLEM 
   MAY BE CAUSED BY LARGE STRAIN INCREMENTS. A SMALLER TIME INCREMENT WILL BE 
   USED.
   UNIAXIAL CONSTRAINT COULD NOT BE SATISFIED FOR ELEMENT 5700022. THE PROBLEM 
   MAY BE CAUSED BY LARGE STRAIN INCREMENTS. A SMALLER TIME INCREMENT WILL BE 
   USED.
   UNIAXIAL CONSTRAINT COULD NOT BE SATISFIED FOR ELEMENT 5800022. THE PROBLEM 
   MAY BE CAUSED BY LARGE STRAIN INCREMENTS. A SMALLER TIME INCREMENT WILL BE 
   USED.
   UNIAXIAL CONSTRAINT COULD NOT BE SATISFIED FOR ELEMENT 5900022. THE PROBLEM 
   MAY BE CAUSED BY LARGE STRAIN INCREMENTS. A SMALLER TIME INCREMENT WILL BE 
   USED.
   UNIAXIAL CONSTRAINT COULD NOT BE SATISFIED FOR ELEMENT 6100022. THE PROBLEM 
   MAY BE CAUSED BY LARGE STRAIN INCREMENTS. A SMALLER TIME INCREMENT WILL BE 
   USED.
   UNIAXIAL CONSTRAINT COULD NOT BE SATISFIED FOR ELEMENT 7700022. THE PROBLEM 
   MAY BE CAUSED BY LARGE STRAIN INCREMENTS. A SMALLER TIME INCREMENT WILL BE 
   USED.
   UNIAXIAL CONSTRAINT COULD NOT BE SATISFIED FOR ELEMENT 7800022. THE PROBLEM 
   MAY BE CAUSED BY LARGE STRAIN INCREMENTS. A SMALLER TIME INCREMENT WILL BE 
   USED.
   UNIAXIAL CONSTRAINT COULD NOT BE SATISFIED FOR ELEMENT 7900022. THE PROBLEM 
   MAY BE CAUSED BY LARGE STRAIN INCREMENTS. A SMALLER TIME INCREMENT WILL BE 
   USED.
   UNIAXIAL CONSTRAINT COULD NOT BE SATISFIED FOR ELEMENT 8000022. THE PROBLEM 
   MAY BE CAUSED BY LARGE STRAIN INCREMENTS. A SMALLER TIME INCREMENT WILL BE 
   USED.
   UNIAXIAL CONSTRAINT COULD NOT BE SATISFIED FOR ELEMENT 8100022. THE PROBLEM 
   MAY BE CAUSED BY LARGE STRAIN INCREMENTS. A SMALLER TIME INCREMENT WILL BE 
   USED.
   UNIAXIAL CONSTRAINT COULD NOT BE SATISFIED FOR ELEMENT 8600022. THE PROBLEM 
   MAY BE CAUSED BY LARGE STRAIN INCREMENTS. A SMALLER TIME INCREMENT WILL BE 
   USED.
   UNIAXIAL CONSTRAINT COULD NOT BE SATISFIED FOR ELEMENT 8700022. THE PROBLEM 
   MAY BE CAUSED BY LARGE STRAIN INCREMENTS. A SMALLER TIME INCREMENT WILL BE 
   USED.
   UNIAXIAL CONSTRAINT COULD NOT BE SATISFIED FOR ELEMENT 8800022. THE PROBLEM 
   MAY BE CAUSED BY LARGE STRAIN INCREMENTS. A SMALLER TIME INCREMENT WILL BE 
   USED.
   UNIAXIAL CONSTRAINT COULD NOT BE SATISFIED FOR ELEMENT 400023. THE PROBLEM 
   MAY BE CAUSED BY LARGE STRAIN INCREMENTS. A SMALLER TIME INCREMENT WILL BE 
   USED.
   UNIAXIAL CONSTRAINT COULD NOT BE SATISFIED FOR ELEMENT 2900023. THE PROBLEM 
   MAY BE CAUSED BY LARGE STRAIN INCREMENTS. A SMALLER TIME INCREMENT WILL BE 
   USED.
   UNIAXIAL CONSTRAINT COULD NOT BE SATISFIED FOR ELEMENT 3000023. THE PROBLEM 
   MAY BE CAUSED BY LARGE STRAIN INCREMENTS. A SMALLER TIME INCREMENT WILL BE 
   USED.
   UNIAXIAL CONSTRAINT COULD NOT BE SATISFIED FOR ELEMENT 3100023. THE PROBLEM 
   MAY BE CAUSED BY LARGE STRAIN INCREMENTS. A SMALLER TIME INCREMENT WILL BE 
   USED.
   UNIAXIAL CONSTRAINT COULD NOT BE SATISFIED FOR ELEMENT 3200023. THE PROBLEM 
   MAY BE CAUSED BY LARGE STRAIN INCREMENTS. A SMALLER TIME INCREMENT WILL BE 
   USED.
   UNIAXIAL CONSTRAINT COULD NOT BE SATISFIED FOR ELEMENT 3400023. THE PROBLEM 
   MAY BE CAUSED BY LARGE STRAIN INCREMENTS. A SMALLER TIME INCREMENT WILL BE 
   USED.
   UNIAXIAL CONSTRAINT COULD NOT BE SATISFIED FOR ELEMENT 3500023. THE PROBLEM 
   MAY BE CAUSED BY LARGE STRAIN INCREMENTS. A SMALLER TIME INCREMENT WILL BE 
   USED.
   UNIAXIAL CONSTRAINT COULD NOT BE SATISFIED FOR ELEMENT 3600023. THE PROBLEM 
   MAY BE CAUSED BY LARGE STRAIN INCREMENTS. A SMALLER TIME INCREMENT WILL BE 
   USED.
   UNIAXIAL CONSTRAINT COULD NOT BE SATISFIED FOR ELEMENT 3800023. THE PROBLEM 
   MAY BE CAUSED BY LARGE STRAIN INCREMENTS. A SMALLER TIME INCREMENT WILL BE 
   USED.
   UNIAXIAL CONSTRAINT COULD NOT BE SATISFIED FOR ELEMENT 3900023. THE PROBLEM 
   MAY BE CAUSED BY LARGE STRAIN INCREMENTS. A SMALLER TIME INCREMENT WILL BE 
   USED.
   UNIAXIAL CONSTRAINT COULD NOT BE SATISFIED FOR ELEMENT 4000023. THE PROBLEM 
   MAY BE CAUSED BY LARGE STRAIN INCREMENTS. A SMALLER TIME INCREMENT WILL BE 
   USED.
   UNIAXIAL CONSTRAINT COULD NOT BE SATISFIED FOR ELEMENT 4100023. THE PROBLEM 
   MAY BE CAUSED BY LARGE STRAIN INCREMENTS. A SMALLER TIME INCREMENT WILL BE 
   USED.
   UNIAXIAL CONSTRAINT COULD NOT BE SATISFIED FOR ELEMENT 4200023. THE PROBLEM 
   MAY BE CAUSED BY LARGE STRAIN INCREMENTS. A SMALLER TIME INCREMENT WILL BE 
   USED.
   UNIAXIAL CONSTRAINT COULD NOT BE SATISFIED FOR ELEMENT 4400023. THE PROBLEM 
   MAY BE CAUSED BY LARGE STRAIN INCREMENTS. A SMALLER TIME INCREMENT WILL BE 
   USED.
   UNIAXIAL CONSTRAINT COULD NOT BE SATISFIED FOR ELEMENT 4500023. THE PROBLEM 
   MAY BE CAUSED BY LARGE STRAIN INCREMENTS. A SMALLER TIME INCREMENT WILL BE 
   USED.
   UNIAXIAL CONSTRAINT COULD NOT BE SATISFIED FOR ELEMENT 4600023. THE PROBLEM 
   MAY BE CAUSED BY LARGE STRAIN INCREMENTS. A SMALLER TIME INCREMENT WILL BE 
   USED.
   UNIAXIAL CONSTRAINT COULD NOT BE SATISFIED FOR ELEMENT 4700023. THE PROBLEM 
   MAY BE CAUSED BY LARGE STRAIN INCREMENTS. A SMALLER TIME INCREMENT WILL BE 
   USED.
   UNIAXIAL CONSTRAINT COULD NOT BE SATISFIED FOR ELEMENT 4800023. THE PROBLEM 
   MAY BE CAUSED BY LARGE STRAIN INCREMENTS. A SMALLER TIME INCREMENT WILL BE 
   USED.
   UNIAXIAL CONSTRAINT COULD NOT BE SATISFIED FOR ELEMENT 4900023. THE PROBLEM 
   MAY BE CAUSED BY LARGE STRAIN INCREMENTS. A SMALLER TIME INCREMENT WILL BE 
   USED.
   UNIAXIAL CONSTRAINT COULD NOT BE SATISFIED FOR ELEMENT 5200023. THE PROBLEM 
   MAY BE CAUSED BY LARGE STRAIN INCREMENTS. A SMALLER TIME INCREMENT WILL BE 
   USED.
   UNIAXIAL CONSTRAINT COULD NOT BE SATISFIED FOR ELEMENT 5300023. THE PROBLEM 
   MAY BE CAUSED BY LARGE STRAIN INCREMENTS. A SMALLER TIME INCREMENT WILL BE 
   USED.
   UNIAXIAL CONSTRAINT COULD NOT BE SATISFIED FOR ELEMENT 5400023. THE PROBLEM 
   MAY BE CAUSED BY LARGE STRAIN INCREMENTS. A SMALLER TIME INCREMENT WILL BE 
   USED.
   UNIAXIAL CONSTRAINT COULD NOT BE SATISFIED FOR ELEMENT 5500023. THE PROBLEM 
   MAY BE CAUSED BY LARGE STRAIN INCREMENTS. A SMALLER TIME INCREMENT WILL BE 
   USED.
   UNIAXIAL CONSTRAINT COULD NOT BE SATISFIED FOR ELEMENT 5600023. THE PROBLEM 
   MAY BE CAUSED BY LARGE STRAIN INCREMENTS. A SMALLER TIME INCREMENT WILL BE 
   USED.
   UNIAXIAL CONSTRAINT COULD NOT BE SATISFIED FOR ELEMENT 5700023. THE PROBLEM 
   MAY BE CAUSED BY LARGE STRAIN INCREMENTS. A SMALLER TIME INCREMENT WILL BE 
   USED.
   UNIAXIAL CONSTRAINT COULD NOT BE SATISFIED FOR ELEMENT 6000023. THE PROBLEM 
   MAY BE CAUSED BY LARGE STRAIN INCREMENTS. A SMALLER TIME INCREMENT WILL BE 
   USED.
   UNIAXIAL CONSTRAINT COULD NOT BE SATISFIED FOR ELEMENT 6100023. THE PROBLEM 
   MAY BE CAUSED BY LARGE STRAIN INCREMENTS. A SMALLER TIME INCREMENT WILL BE 
   USED.
   UNIAXIAL CONSTRAINT COULD NOT BE SATISFIED FOR ELEMENT 7600023. THE PROBLEM 
   MAY BE CAUSED BY LARGE STRAIN INCREMENTS. A SMALLER TIME INCREMENT WILL BE 
   USED.
   UNIAXIAL CONSTRAINT COULD NOT BE SATISFIED FOR ELEMENT 7700023. THE PROBLEM 
   MAY BE CAUSED BY LARGE STRAIN INCREMENTS. A SMALLER TIME INCREMENT WILL BE 
   USED.
   UNIAXIAL CONSTRAINT COULD NOT BE SATISFIED FOR ELEMENT 7800023. THE PROBLEM 
   MAY BE CAUSED BY LARGE STRAIN INCREMENTS. A SMALLER TIME INCREMENT WILL BE 
   USED.
   UNIAXIAL CONSTRAINT COULD NOT BE SATISFIED FOR ELEMENT 7900023. THE PROBLEM 
   MAY BE CAUSED BY LARGE STRAIN INCREMENTS. A SMALLER TIME INCREMENT WILL BE 
   USED.
   UNIAXIAL CONSTRAINT COULD NOT BE SATISFIED FOR ELEMENT 8000023. THE PROBLEM 
   MAY BE CAUSED BY LARGE STRAIN INCREMENTS. A SMALLER TIME INCREMENT WILL BE 
   USED.
   UNIAXIAL CONSTRAINT COULD NOT BE SATISFIED FOR ELEMENT 8700023. THE PROBLEM 
   MAY BE CAUSED BY LARGE STRAIN INCREMENTS. A SMALLER TIME INCREMENT WILL BE 
   USED.
   UNIAXIAL CONSTRAINT COULD NOT BE SATISFIED FOR ELEMENT 8800023. THE PROBLEM 
   MAY BE CAUSED BY LARGE STRAIN INCREMENTS. A SMALLER TIME INCREMENT WILL BE 
   USED.
   UNIAXIAL CONSTRAINT COULD NOT BE SATISFIED FOR ELEMENT 2800024. THE PROBLEM 
   MAY BE CAUSED BY LARGE STRAIN INCREMENTS. A SMALLER TIME INCREMENT WILL BE 
   USED.
   UNIAXIAL CONSTRAINT COULD NOT BE SATISFIED FOR ELEMENT 2900024. THE PROBLEM 
   MAY BE CAUSED BY LARGE STRAIN INCREMENTS. A SMALLER TIME INCREMENT WILL BE 
   USED.
   UNIAXIAL CONSTRAINT COULD NOT BE SATISFIED FOR ELEMENT 3100024. THE PROBLEM 
   MAY BE CAUSED BY LARGE STRAIN INCREMENTS. A SMALLER TIME INCREMENT WILL BE 
   USED.
   UNIAXIAL CONSTRAINT COULD NOT BE SATISFIED FOR ELEMENT 3200024. THE PROBLEM 
   MAY BE CAUSED BY LARGE STRAIN INCREMENTS. A SMALLER TIME INCREMENT WILL BE 
   USED.
   UNIAXIAL CONSTRAINT COULD NOT BE SATISFIED FOR ELEMENT 3300024. THE PROBLEM 
   MAY BE CAUSED BY LARGE STRAIN INCREMENTS. A SMALLER TIME INCREMENT WILL BE 
   USED.
   UNIAXIAL CONSTRAINT COULD NOT BE SATISFIED FOR ELEMENT 3400024. THE PROBLEM 
   MAY BE CAUSED BY LARGE STRAIN INCREMENTS. A SMALLER TIME INCREMENT WILL BE 
   USED.
   UNIAXIAL CONSTRAINT COULD NOT BE SATISFIED FOR ELEMENT 3500024. THE PROBLEM 
   MAY BE CAUSED BY LARGE STRAIN INCREMENTS. A SMALLER TIME INCREMENT WILL BE 
   USED.
   UNIAXIAL CONSTRAINT COULD NOT BE SATISFIED FOR ELEMENT 3600024. THE PROBLEM 
   MAY BE CAUSED BY LARGE STRAIN INCREMENTS. A SMALLER TIME INCREMENT WILL BE 
   USED.
   UNIAXIAL CONSTRAINT COULD NOT BE SATISFIED FOR ELEMENT 3700024. THE PROBLEM 
   MAY BE CAUSED BY LARGE STRAIN INCREMENTS. A SMALLER TIME INCREMENT WILL BE 
   USED.
   UNIAXIAL CONSTRAINT COULD NOT BE SATISFIED FOR ELEMENT 3800024. THE PROBLEM 
   MAY BE CAUSED BY LARGE STRAIN INCREMENTS. A SMALLER TIME INCREMENT WILL BE 
   USED.
   UNIAXIAL CONSTRAINT COULD NOT BE SATISFIED FOR ELEMENT 3900024. THE PROBLEM 
   MAY BE CAUSED BY LARGE STRAIN INCREMENTS. A SMALLER TIME INCREMENT WILL BE 
   USED.
   UNIAXIAL CONSTRAINT COULD NOT BE SATISFIED FOR ELEMENT 4000024. THE PROBLEM 
   MAY BE CAUSED BY LARGE STRAIN INCREMENTS. A SMALLER TIME INCREMENT WILL BE 
   USED.
   UNIAXIAL CONSTRAINT COULD NOT BE SATISFIED FOR ELEMENT 4200024. THE PROBLEM 
   MAY BE CAUSED BY LARGE STRAIN INCREMENTS. A SMALLER TIME INCREMENT WILL BE 
   USED.
   UNIAXIAL CONSTRAINT COULD NOT BE SATISFIED FOR ELEMENT 4300024. THE PROBLEM 
   MAY BE CAUSED BY LARGE STRAIN INCREMENTS. A SMALLER TIME INCREMENT WILL BE 
   USED.
   UNIAXIAL CONSTRAINT COULD NOT BE SATISFIED FOR ELEMENT 4400024. THE PROBLEM 
   MAY BE CAUSED BY LARGE STRAIN INCREMENTS. A SMALLER TIME INCREMENT WILL BE 
   USED.
   UNIAXIAL CONSTRAINT COULD NOT BE SATISFIED FOR ELEMENT 4500024. THE PROBLEM 
   MAY BE CAUSED BY LARGE STRAIN INCREMENTS. A SMALLER TIME INCREMENT WILL BE 
   USED.
   UNIAXIAL CONSTRAINT COULD NOT BE SATISFIED FOR ELEMENT 4600024. THE PROBLEM 
   MAY BE CAUSED BY LARGE STRAIN INCREMENTS. A SMALLER TIME INCREMENT WILL BE 
   USED.
   UNIAXIAL CONSTRAINT COULD NOT BE SATISFIED FOR ELEMENT 4700024. THE PROBLEM 
   MAY BE CAUSED BY LARGE STRAIN INCREMENTS. A SMALLER TIME INCREMENT WILL BE 
   USED.
   UNIAXIAL CONSTRAINT COULD NOT BE SATISFIED FOR ELEMENT 4800024. THE PROBLEM 
   MAY BE CAUSED BY LARGE STRAIN INCREMENTS. A SMALLER TIME INCREMENT WILL BE 
   USED.
   UNIAXIAL CONSTRAINT COULD NOT BE SATISFIED FOR ELEMENT 4900024. THE PROBLEM 
   MAY BE CAUSED BY LARGE STRAIN INCREMENTS. A SMALLER TIME INCREMENT WILL BE 
   USED.
   UNIAXIAL CONSTRAINT COULD NOT BE SATISFIED FOR ELEMENT 5000024. THE PROBLEM 
   MAY BE CAUSED BY LARGE STRAIN INCREMENTS. A SMALLER TIME INCREMENT WILL BE 
   USED.
   UNIAXIAL CONSTRAINT COULD NOT BE SATISFIED FOR ELEMENT 5200024. THE PROBLEM 
   MAY BE CAUSED BY LARGE STRAIN INCREMENTS. A SMALLER TIME INCREMENT WILL BE 
   USED.
   UNIAXIAL CONSTRAINT COULD NOT BE SATISFIED FOR ELEMENT 5300024. THE PROBLEM 
   MAY BE CAUSED BY LARGE STRAIN INCREMENTS. A SMALLER TIME INCREMENT WILL BE 
   USED.
   UNIAXIAL CONSTRAINT COULD NOT BE SATISFIED FOR ELEMENT 5400024. THE PROBLEM 
   MAY BE CAUSED BY LARGE STRAIN INCREMENTS. A SMALLER TIME INCREMENT WILL BE 
   USED.
   UNIAXIAL CONSTRAINT COULD NOT BE SATISFIED FOR ELEMENT 5500024. THE PROBLEM 
   MAY BE CAUSED BY LARGE STRAIN INCREMENTS. A SMALLER TIME INCREMENT WILL BE 
   USED.
   UNIAXIAL CONSTRAINT COULD NOT BE SATISFIED FOR ELEMENT 5600024. THE PROBLEM 
   MAY BE CAUSED BY LARGE STRAIN INCREMENTS. A SMALLER TIME INCREMENT WILL BE 
   USED.
   UNIAXIAL CONSTRAINT COULD NOT BE SATISFIED FOR ELEMENT 5700024. THE PROBLEM 
   MAY BE CAUSED BY LARGE STRAIN INCREMENTS. A SMALLER TIME INCREMENT WILL BE 
   USED.
   UNIAXIAL CONSTRAINT COULD NOT BE SATISFIED FOR ELEMENT 5900024. THE PROBLEM 
   MAY BE CAUSED BY LARGE STRAIN INCREMENTS. A SMALLER TIME INCREMENT WILL BE 
   USED.
   UNIAXIAL CONSTRAINT COULD NOT BE SATISFIED FOR ELEMENT 6100024. THE PROBLEM 
   MAY BE CAUSED BY LARGE STRAIN INCREMENTS. A SMALLER TIME INCREMENT WILL BE 
   USED.
   UNIAXIAL CONSTRAINT COULD NOT BE SATISFIED FOR ELEMENT 6200024. THE PROBLEM 
   MAY BE CAUSED BY LARGE STRAIN INCREMENTS. A SMALLER TIME INCREMENT WILL BE 
   USED.
   UNIAXIAL CONSTRAINT COULD NOT BE SATISFIED FOR ELEMENT 6300024. THE PROBLEM 
   MAY BE CAUSED BY LARGE STRAIN INCREMENTS. A SMALLER TIME INCREMENT WILL BE 
   USED.
   UNIAXIAL CONSTRAINT COULD NOT BE SATISFIED FOR ELEMENT 6500024. THE PROBLEM 
   MAY BE CAUSED BY LARGE STRAIN INCREMENTS. A SMALLER TIME INCREMENT WILL BE 
   USED.
   UNIAXIAL CONSTRAINT COULD NOT BE SATISFIED FOR ELEMENT 7500024. THE PROBLEM 
   MAY BE CAUSED BY LARGE STRAIN INCREMENTS. A SMALLER TIME INCREMENT WILL BE 
   USED.
   UNIAXIAL CONSTRAINT COULD NOT BE SATISFIED FOR ELEMENT 7600024. THE PROBLEM 
   MAY BE CAUSED BY LARGE STRAIN INCREMENTS. A SMALLER TIME INCREMENT WILL BE 
   USED.
   UNIAXIAL CONSTRAINT COULD NOT BE SATISFIED FOR ELEMENT 7800024. THE PROBLEM 
   MAY BE CAUSED BY LARGE STRAIN INCREMENTS. A SMALLER TIME INCREMENT WILL BE 
   USED.
   UNIAXIAL CONSTRAINT COULD NOT BE SATISFIED FOR ELEMENT 7900024. THE PROBLEM 
   MAY BE CAUSED BY LARGE STRAIN INCREMENTS. A SMALLER TIME INCREMENT WILL BE 
   USED.
   UNIAXIAL CONSTRAINT COULD NOT BE SATISFIED FOR ELEMENT 8000024. THE PROBLEM 
   MAY BE CAUSED BY LARGE STRAIN INCREMENTS. A SMALLER TIME INCREMENT WILL BE 
   USED.
   UNIAXIAL CONSTRAINT COULD NOT BE SATISFIED FOR ELEMENT 8100024. THE PROBLEM 
   MAY BE CAUSED BY LARGE STRAIN INCREMENTS. A SMALLER TIME INCREMENT WILL BE 
   USED.
   UNIAXIAL CONSTRAINT COULD NOT BE SATISFIED FOR ELEMENT 8500024. THE PROBLEM 
   MAY BE CAUSED BY LARGE STRAIN INCREMENTS. A SMALLER TIME INCREMENT WILL BE 
   USED.
   UNIAXIAL CONSTRAINT COULD NOT BE SATISFIED FOR ELEMENT 8600024. THE PROBLEM 
   MAY BE CAUSED BY LARGE STRAIN INCREMENTS. A SMALLER TIME INCREMENT WILL BE 
   USED.
   UNIAXIAL CONSTRAINT COULD NOT BE SATISFIED FOR ELEMENT 8700024. THE PROBLEM 
   MAY BE CAUSED BY LARGE STRAIN INCREMENTS. A SMALLER TIME INCREMENT WILL BE 
   USED.
   UNIAXIAL CONSTRAINT COULD NOT BE SATISFIED FOR ELEMENT 8900024. THE PROBLEM 
   MAY BE CAUSED BY LARGE STRAIN INCREMENTS. A SMALLER TIME INCREMENT WILL BE 
   USED.
   UNIAXIAL CONSTRAINT COULD NOT BE SATISFIED FOR ELEMENT 400025. THE PROBLEM 
   MAY BE CAUSED BY LARGE STRAIN INCREMENTS. A SMALLER TIME INCREMENT WILL BE 
   USED.
   UNIAXIAL CONSTRAINT COULD NOT BE SATISFIED FOR ELEMENT 2800025. THE PROBLEM 
   MAY BE CAUSED BY LARGE STRAIN INCREMENTS. A SMALLER TIME INCREMENT WILL BE 
   USED.
   UNIAXIAL CONSTRAINT COULD NOT BE SATISFIED FOR ELEMENT 2900025. THE PROBLEM 
   MAY BE CAUSED BY LARGE STRAIN INCREMENTS. A SMALLER TIME INCREMENT WILL BE 
   USED.
   UNIAXIAL CONSTRAINT COULD NOT BE SATISFIED FOR ELEMENT 3000025. THE PROBLEM 
   MAY BE CAUSED BY LARGE STRAIN INCREMENTS. A SMALLER TIME INCREMENT WILL BE 
   USED.
   UNIAXIAL CONSTRAINT COULD NOT BE SATISFIED FOR ELEMENT 3100025. THE PROBLEM 
   MAY BE CAUSED BY LARGE STRAIN INCREMENTS. A SMALLER TIME INCREMENT WILL BE 
   USED.
   UNIAXIAL CONSTRAINT COULD NOT BE SATISFIED FOR ELEMENT 3300025. THE PROBLEM 
   MAY BE CAUSED BY LARGE STRAIN INCREMENTS. A SMALLER TIME INCREMENT WILL BE 
   USED.
   UNIAXIAL CONSTRAINT COULD NOT BE SATISFIED FOR ELEMENT 3400025. THE PROBLEM 
   MAY BE CAUSED BY LARGE STRAIN INCREMENTS. A SMALLER TIME INCREMENT WILL BE 
   USED.
   UNIAXIAL CONSTRAINT COULD NOT BE SATISFIED FOR ELEMENT 3500025. THE PROBLEM 
   MAY BE CAUSED BY LARGE STRAIN INCREMENTS. A SMALLER TIME INCREMENT WILL BE 
   USED.
   UNIAXIAL CONSTRAINT COULD NOT BE SATISFIED FOR ELEMENT 3600025. THE PROBLEM 
   MAY BE CAUSED BY LARGE STRAIN INCREMENTS. A SMALLER TIME INCREMENT WILL BE 
   USED.
   UNIAXIAL CONSTRAINT COULD NOT BE SATISFIED FOR ELEMENT 3700025. THE PROBLEM 
   MAY BE CAUSED BY LARGE STRAIN INCREMENTS. A SMALLER TIME INCREMENT WILL BE 
   USED.
   UNIAXIAL CONSTRAINT COULD NOT BE SATISFIED FOR ELEMENT 3800025. THE PROBLEM 
   MAY BE CAUSED BY LARGE STRAIN INCREMENTS. A SMALLER TIME INCREMENT WILL BE 
   USED.
   UNIAXIAL CONSTRAINT COULD NOT BE SATISFIED FOR ELEMENT 3900025. THE PROBLEM 
   MAY BE CAUSED BY LARGE STRAIN INCREMENTS. A SMALLER TIME INCREMENT WILL BE 
   USED.
   UNIAXIAL CONSTRAINT COULD NOT BE SATISFIED FOR ELEMENT 4000025. THE PROBLEM 
   MAY BE CAUSED BY LARGE STRAIN INCREMENTS. A SMALLER TIME INCREMENT WILL BE 
   USED.
   UNIAXIAL CONSTRAINT COULD NOT BE SATISFIED FOR ELEMENT 4200025. THE PROBLEM 
   MAY BE CAUSED BY LARGE STRAIN INCREMENTS. A SMALLER TIME INCREMENT WILL BE 
   USED.
   UNIAXIAL CONSTRAINT COULD NOT BE SATISFIED FOR ELEMENT 4300025. THE PROBLEM 
   MAY BE CAUSED BY LARGE STRAIN INCREMENTS. A SMALLER TIME INCREMENT WILL BE 
   USED.
   UNIAXIAL CONSTRAINT COULD NOT BE SATISFIED FOR ELEMENT 4400025. THE PROBLEM 
   MAY BE CAUSED BY LARGE STRAIN INCREMENTS. A SMALLER TIME INCREMENT WILL BE 
   USED.
   UNIAXIAL CONSTRAINT COULD NOT BE SATISFIED FOR ELEMENT 4500025. THE PROBLEM 
   MAY BE CAUSED BY LARGE STRAIN INCREMENTS. A SMALLER TIME INCREMENT WILL BE 
   USED.
   UNIAXIAL CONSTRAINT COULD NOT BE SATISFIED FOR ELEMENT 4600025. THE PROBLEM 
   MAY BE CAUSED BY LARGE STRAIN INCREMENTS. A SMALLER TIME INCREMENT WILL BE 
   USED.
   UNIAXIAL CONSTRAINT COULD NOT BE SATISFIED FOR ELEMENT 4800025. THE PROBLEM 
   MAY BE CAUSED BY LARGE STRAIN INCREMENTS. A SMALLER TIME INCREMENT WILL BE 
   USED.
   UNIAXIAL CONSTRAINT COULD NOT BE SATISFIED FOR ELEMENT 4900025. THE PROBLEM 
   MAY BE CAUSED BY LARGE STRAIN INCREMENTS. A SMALLER TIME INCREMENT WILL BE 
   USED.
   UNIAXIAL CONSTRAINT COULD NOT BE SATISFIED FOR ELEMENT 5000025. THE PROBLEM 
   MAY BE CAUSED BY LARGE STRAIN INCREMENTS. A SMALLER TIME INCREMENT WILL BE 
   USED.
   UNIAXIAL CONSTRAINT COULD NOT BE SATISFIED FOR ELEMENT 5100025. THE PROBLEM 
   MAY BE CAUSED BY LARGE STRAIN INCREMENTS. A SMALLER TIME INCREMENT WILL BE 
   USED.
   UNIAXIAL CONSTRAINT COULD NOT BE SATISFIED FOR ELEMENT 5200025. THE PROBLEM 
   MAY BE CAUSED BY LARGE STRAIN INCREMENTS. A SMALLER TIME INCREMENT WILL BE 
   USED.
   UNIAXIAL CONSTRAINT COULD NOT BE SATISFIED FOR ELEMENT 5400025. THE PROBLEM 
   MAY BE CAUSED BY LARGE STRAIN INCREMENTS. A SMALLER TIME INCREMENT WILL BE 
   USED.
   UNIAXIAL CONSTRAINT COULD NOT BE SATISFIED FOR ELEMENT 5500025. THE PROBLEM 
   MAY BE CAUSED BY LARGE STRAIN INCREMENTS. A SMALLER TIME INCREMENT WILL BE 
   USED.
   UNIAXIAL CONSTRAINT COULD NOT BE SATISFIED FOR ELEMENT 5600025. THE PROBLEM 
   MAY BE CAUSED BY LARGE STRAIN INCREMENTS. A SMALLER TIME INCREMENT WILL BE 
   USED.
   UNIAXIAL CONSTRAINT COULD NOT BE SATISFIED FOR ELEMENT 5700025. THE PROBLEM 
   MAY BE CAUSED BY LARGE STRAIN INCREMENTS. A SMALLER TIME INCREMENT WILL BE 
   USED.
   UNIAXIAL CONSTRAINT COULD NOT BE SATISFIED FOR ELEMENT 5800025. THE PROBLEM 
   MAY BE CAUSED BY LARGE STRAIN INCREMENTS. A SMALLER TIME INCREMENT WILL BE 
   USED.
   UNIAXIAL CONSTRAINT COULD NOT BE SATISFIED FOR ELEMENT 6000025. THE PROBLEM 
   MAY BE CAUSED BY LARGE STRAIN INCREMENTS. A SMALLER TIME INCREMENT WILL BE 
   USED.
   UNIAXIAL CONSTRAINT COULD NOT BE SATISFIED FOR ELEMENT 6100025. THE PROBLEM 
   MAY BE CAUSED BY LARGE STRAIN INCREMENTS. A SMALLER TIME INCREMENT WILL BE 
   USED.
   UNIAXIAL CONSTRAINT COULD NOT BE SATISFIED FOR ELEMENT 6200025. THE PROBLEM 
   MAY BE CAUSED BY LARGE STRAIN INCREMENTS. A SMALLER TIME INCREMENT WILL BE 
   USED.
   UNIAXIAL CONSTRAINT COULD NOT BE SATISFIED FOR ELEMENT 6300025. THE PROBLEM 
   MAY BE CAUSED BY LARGE STRAIN INCREMENTS. A SMALLER TIME INCREMENT WILL BE 
   USED.
   UNIAXIAL CONSTRAINT COULD NOT BE SATISFIED FOR ELEMENT 6500025. THE PROBLEM 
   MAY BE CAUSED BY LARGE STRAIN INCREMENTS. A SMALLER TIME INCREMENT WILL BE 
   USED.
   UNIAXIAL CONSTRAINT COULD NOT BE SATISFIED FOR ELEMENT 7400025. THE PROBLEM 
   MAY BE CAUSED BY LARGE STRAIN INCREMENTS. A SMALLER TIME INCREMENT WILL BE 
   USED.
   UNIAXIAL CONSTRAINT COULD NOT BE SATISFIED FOR ELEMENT 7500025. THE PROBLEM 
   MAY BE CAUSED BY LARGE STRAIN INCREMENTS. A SMALLER TIME INCREMENT WILL BE 
   USED.
   UNIAXIAL CONSTRAINT COULD NOT BE SATISFIED FOR ELEMENT 7600025. THE PROBLEM 
   MAY BE CAUSED BY LARGE STRAIN INCREMENTS. A SMALLER TIME INCREMENT WILL BE 
   USED.
   UNIAXIAL CONSTRAINT COULD NOT BE SATISFIED FOR ELEMENT 7700025. THE PROBLEM 
   MAY BE CAUSED BY LARGE STRAIN INCREMENTS. A SMALLER TIME INCREMENT WILL BE 
   USED.
   UNIAXIAL CONSTRAINT COULD NOT BE SATISFIED FOR ELEMENT 7800025. THE PROBLEM 
   MAY BE CAUSED BY LARGE STRAIN INCREMENTS. A SMALLER TIME INCREMENT WILL BE 
   USED.
   UNIAXIAL CONSTRAINT COULD NOT BE SATISFIED FOR ELEMENT 7900025. THE PROBLEM 
   MAY BE CAUSED BY LARGE STRAIN INCREMENTS. A SMALLER TIME INCREMENT WILL BE 
   USED.
   UNIAXIAL CONSTRAINT COULD NOT BE SATISFIED FOR ELEMENT 8000025. THE PROBLEM 
   MAY BE CAUSED BY LARGE STRAIN INCREMENTS. A SMALLER TIME INCREMENT WILL BE 
   USED.
   UNIAXIAL CONSTRAINT COULD NOT BE SATISFIED FOR ELEMENT 8100025. THE PROBLEM 
   MAY BE CAUSED BY LARGE STRAIN INCREMENTS. A SMALLER TIME INCREMENT WILL BE 
   USED.
   UNIAXIAL CONSTRAINT COULD NOT BE SATISFIED FOR ELEMENT 8700025. THE PROBLEM 
   MAY BE CAUSED BY LARGE STRAIN INCREMENTS. A SMALLER TIME INCREMENT WILL BE 
   USED.
   UNIAXIAL CONSTRAINT COULD NOT BE SATISFIED FOR ELEMENT 8800025. THE PROBLEM 
   MAY BE CAUSED BY LARGE STRAIN INCREMENTS. A SMALLER TIME INCREMENT WILL BE 
   USED.
   UNIAXIAL CONSTRAINT COULD NOT BE SATISFIED FOR ELEMENT 8900025. THE PROBLEM 
   MAY BE CAUSED BY LARGE STRAIN INCREMENTS. A SMALLER TIME INCREMENT WILL BE 
   USED.
   UNIAXIAL CONSTRAINT COULD NOT BE SATISFIED FOR ELEMENT 300026. THE PROBLEM 
   MAY BE CAUSED BY LARGE STRAIN INCREMENTS. A SMALLER TIME INCREMENT WILL BE 
   USED.
   UNIAXIAL CONSTRAINT COULD NOT BE SATISFIED FOR ELEMENT 400026. THE PROBLEM 
   MAY BE CAUSED BY LARGE STRAIN INCREMENTS. A SMALLER TIME INCREMENT WILL BE 
   USED.
   UNIAXIAL CONSTRAINT COULD NOT BE SATISFIED FOR ELEMENT 2700026. THE PROBLEM 
   MAY BE CAUSED BY LARGE STRAIN INCREMENTS. A SMALLER TIME INCREMENT WILL BE 
   USED.
   UNIAXIAL CONSTRAINT COULD NOT BE SATISFIED FOR ELEMENT 2800026. THE PROBLEM 
   MAY BE CAUSED BY LARGE STRAIN INCREMENTS. A SMALLER TIME INCREMENT WILL BE 
   USED.
   UNIAXIAL CONSTRAINT COULD NOT BE SATISFIED FOR ELEMENT 2900026. THE PROBLEM 
   MAY BE CAUSED BY LARGE STRAIN INCREMENTS. A SMALLER TIME INCREMENT WILL BE 
   USED.
   UNIAXIAL CONSTRAINT COULD NOT BE SATISFIED FOR ELEMENT 3000026. THE PROBLEM 
   MAY BE CAUSED BY LARGE STRAIN INCREMENTS. A SMALLER TIME INCREMENT WILL BE 
   USED.
   UNIAXIAL CONSTRAINT COULD NOT BE SATISFIED FOR ELEMENT 3100026. THE PROBLEM 
   MAY BE CAUSED BY LARGE STRAIN INCREMENTS. A SMALLER TIME INCREMENT WILL BE 
   USED.
   UNIAXIAL CONSTRAINT COULD NOT BE SATISFIED FOR ELEMENT 3200026. THE PROBLEM 
   MAY BE CAUSED BY LARGE STRAIN INCREMENTS. A SMALLER TIME INCREMENT WILL BE 
   USED.
   UNIAXIAL CONSTRAINT COULD NOT BE SATISFIED FOR ELEMENT 3300026. THE PROBLEM 
   MAY BE CAUSED BY LARGE STRAIN INCREMENTS. A SMALLER TIME INCREMENT WILL BE 
   USED.
   UNIAXIAL CONSTRAINT COULD NOT BE SATISFIED FOR ELEMENT 3400026. THE PROBLEM 
   MAY BE CAUSED BY LARGE STRAIN INCREMENTS. A SMALLER TIME INCREMENT WILL BE 
   USED.
   UNIAXIAL CONSTRAINT COULD NOT BE SATISFIED FOR ELEMENT 3500026. THE PROBLEM 
   MAY BE CAUSED BY LARGE STRAIN INCREMENTS. A SMALLER TIME INCREMENT WILL BE 
   USED.
   UNIAXIAL CONSTRAINT COULD NOT BE SATISFIED FOR ELEMENT 3600026. THE PROBLEM 
   MAY BE CAUSED BY LARGE STRAIN INCREMENTS. A SMALLER TIME INCREMENT WILL BE 
   USED.
   UNIAXIAL CONSTRAINT COULD NOT BE SATISFIED FOR ELEMENT 3800026. THE PROBLEM 
   MAY BE CAUSED BY LARGE STRAIN INCREMENTS. A SMALLER TIME INCREMENT WILL BE 
   USED.
   UNIAXIAL CONSTRAINT COULD NOT BE SATISFIED FOR ELEMENT 3900026. THE PROBLEM 
   MAY BE CAUSED BY LARGE STRAIN INCREMENTS. A SMALLER TIME INCREMENT WILL BE 
   USED.
   UNIAXIAL CONSTRAINT COULD NOT BE SATISFIED FOR ELEMENT 4100026. THE PROBLEM 
   MAY BE CAUSED BY LARGE STRAIN INCREMENTS. A SMALLER TIME INCREMENT WILL BE 
   USED.
   UNIAXIAL CONSTRAINT COULD NOT BE SATISFIED FOR ELEMENT 4200026. THE PROBLEM 
   MAY BE CAUSED BY LARGE STRAIN INCREMENTS. A SMALLER TIME INCREMENT WILL BE 
   USED.
   UNIAXIAL CONSTRAINT COULD NOT BE SATISFIED FOR ELEMENT 4600026. THE PROBLEM 
   MAY BE CAUSED BY LARGE STRAIN INCREMENTS. A SMALLER TIME INCREMENT WILL BE 
   USED.
   UNIAXIAL CONSTRAINT COULD NOT BE SATISFIED FOR ELEMENT 4700026. THE PROBLEM 
   MAY BE CAUSED BY LARGE STRAIN INCREMENTS. A SMALLER TIME INCREMENT WILL BE 
   USED.
   UNIAXIAL CONSTRAINT COULD NOT BE SATISFIED FOR ELEMENT 4800026. THE PROBLEM 
   MAY BE CAUSED BY LARGE STRAIN INCREMENTS. A SMALLER TIME INCREMENT WILL BE 
   USED.
   UNIAXIAL CONSTRAINT COULD NOT BE SATISFIED FOR ELEMENT 4900026. THE PROBLEM 
   MAY BE CAUSED BY LARGE STRAIN INCREMENTS. A SMALLER TIME INCREMENT WILL BE 
   USED.
   UNIAXIAL CONSTRAINT COULD NOT BE SATISFIED FOR ELEMENT 5000026. THE PROBLEM 
   MAY BE CAUSED BY LARGE STRAIN INCREMENTS. A SMALLER TIME INCREMENT WILL BE 
   USED.
   UNIAXIAL CONSTRAINT COULD NOT BE SATISFIED FOR ELEMENT 5100026. THE PROBLEM 
   MAY BE CAUSED BY LARGE STRAIN INCREMENTS. A SMALLER TIME INCREMENT WILL BE 
   USED.
   UNIAXIAL CONSTRAINT COULD NOT BE SATISFIED FOR ELEMENT 5300026. THE PROBLEM 
   MAY BE CAUSED BY LARGE STRAIN INCREMENTS. A SMALLER TIME INCREMENT WILL BE 
   USED.
   UNIAXIAL CONSTRAINT COULD NOT BE SATISFIED FOR ELEMENT 5400026. THE PROBLEM 
   MAY BE CAUSED BY LARGE STRAIN INCREMENTS. A SMALLER TIME INCREMENT WILL BE 
   USED.
   UNIAXIAL CONSTRAINT COULD NOT BE SATISFIED FOR ELEMENT 5500026. THE PROBLEM 
   MAY BE CAUSED BY LARGE STRAIN INCREMENTS. A SMALLER TIME INCREMENT WILL BE 
   USED.
   UNIAXIAL CONSTRAINT COULD NOT BE SATISFIED FOR ELEMENT 5600026. THE PROBLEM 
   MAY BE CAUSED BY LARGE STRAIN INCREMENTS. A SMALLER TIME INCREMENT WILL BE 
   USED.
   UNIAXIAL CONSTRAINT COULD NOT BE SATISFIED FOR ELEMENT 5700026. THE PROBLEM 
   MAY BE CAUSED BY LARGE STRAIN INCREMENTS. A SMALLER TIME INCREMENT WILL BE 
   USED.
   UNIAXIAL CONSTRAINT COULD NOT BE SATISFIED FOR ELEMENT 5800026. THE PROBLEM 
   MAY BE CAUSED BY LARGE STRAIN INCREMENTS. A SMALLER TIME INCREMENT WILL BE 
   USED.
   UNIAXIAL CONSTRAINT COULD NOT BE SATISFIED FOR ELEMENT 6000026. THE PROBLEM 
   MAY BE CAUSED BY LARGE STRAIN INCREMENTS. A SMALLER TIME INCREMENT WILL BE 
   USED.
   UNIAXIAL CONSTRAINT COULD NOT BE SATISFIED FOR ELEMENT 6100026. THE PROBLEM 
   MAY BE CAUSED BY LARGE STRAIN INCREMENTS. A SMALLER TIME INCREMENT WILL BE 
   USED.
   UNIAXIAL CONSTRAINT COULD NOT BE SATISFIED FOR ELEMENT 6200026. THE PROBLEM 
   MAY BE CAUSED BY LARGE STRAIN INCREMENTS. A SMALLER TIME INCREMENT WILL BE 
   USED.
   UNIAXIAL CONSTRAINT COULD NOT BE SATISFIED FOR ELEMENT 6300026. THE PROBLEM 
   MAY BE CAUSED BY LARGE STRAIN INCREMENTS. A SMALLER TIME INCREMENT WILL BE 
   USED.
   UNIAXIAL CONSTRAINT COULD NOT BE SATISFIED FOR ELEMENT 6500026. THE PROBLEM 
   MAY BE CAUSED BY LARGE STRAIN INCREMENTS. A SMALLER TIME INCREMENT WILL BE 
   USED.
   UNIAXIAL CONSTRAINT COULD NOT BE SATISFIED FOR ELEMENT 7500026. THE PROBLEM 
   MAY BE CAUSED BY LARGE STRAIN INCREMENTS. A SMALLER TIME INCREMENT WILL BE 
   USED.
   UNIAXIAL CONSTRAINT COULD NOT BE SATISFIED FOR ELEMENT 7700026. THE PROBLEM 
   MAY BE CAUSED BY LARGE STRAIN INCREMENTS. A SMALLER TIME INCREMENT WILL BE 
   USED.
   UNIAXIAL CONSTRAINT COULD NOT BE SATISFIED FOR ELEMENT 7800026. THE PROBLEM 
   MAY BE CAUSED BY LARGE STRAIN INCREMENTS. A SMALLER TIME INCREMENT WILL BE 
   USED.
   UNIAXIAL CONSTRAINT COULD NOT BE SATISFIED FOR ELEMENT 7900026. THE PROBLEM 
   MAY BE CAUSED BY LARGE STRAIN INCREMENTS. A SMALLER TIME INCREMENT WILL BE 
   USED.
   UNIAXIAL CONSTRAINT COULD NOT BE SATISFIED FOR ELEMENT 8000026. THE PROBLEM 
   MAY BE CAUSED BY LARGE STRAIN INCREMENTS. A SMALLER TIME INCREMENT WILL BE 
   USED.
   UNIAXIAL CONSTRAINT COULD NOT BE SATISFIED FOR ELEMENT 8600026. THE PROBLEM 
   MAY BE CAUSED BY LARGE STRAIN INCREMENTS. A SMALLER TIME INCREMENT WILL BE 
   USED.
   UNIAXIAL CONSTRAINT COULD NOT BE SATISFIED FOR ELEMENT 8700026. THE PROBLEM 
   MAY BE CAUSED BY LARGE STRAIN INCREMENTS. A SMALLER TIME INCREMENT WILL BE 
   USED.
   UNIAXIAL CONSTRAINT COULD NOT BE SATISFIED FOR ELEMENT 8800026. THE PROBLEM 
   MAY BE CAUSED BY LARGE STRAIN INCREMENTS. A SMALLER TIME INCREMENT WILL BE 
   USED.
   UNIAXIAL CONSTRAINT COULD NOT BE SATISFIED FOR ELEMENT 8900026. THE PROBLEM 
   MAY BE CAUSED BY LARGE STRAIN INCREMENTS. A SMALLER TIME INCREMENT WILL BE 
   USED.
   UNIAXIAL CONSTRAINT COULD NOT BE SATISFIED FOR ELEMENT 300027. THE PROBLEM 
   MAY BE CAUSED BY LARGE STRAIN INCREMENTS. A SMALLER TIME INCREMENT WILL BE 
   USED.
   UNIAXIAL CONSTRAINT COULD NOT BE SATISFIED FOR ELEMENT 400027. THE PROBLEM 
   MAY BE CAUSED BY LARGE STRAIN INCREMENTS. A SMALLER TIME INCREMENT WILL BE 
   USED.
   UNIAXIAL CONSTRAINT COULD NOT BE SATISFIED FOR ELEMENT 2900027. THE PROBLEM 
   MAY BE CAUSED BY LARGE STRAIN INCREMENTS. A SMALLER TIME INCREMENT WILL BE 
   USED.
   UNIAXIAL CONSTRAINT COULD NOT BE SATISFIED FOR ELEMENT 3000027. THE PROBLEM 
   MAY BE CAUSED BY LARGE STRAIN INCREMENTS. A SMALLER TIME INCREMENT WILL BE 
   USED.
   UNIAXIAL CONSTRAINT COULD NOT BE SATISFIED FOR ELEMENT 3200027. THE PROBLEM 
   MAY BE CAUSED BY LARGE STRAIN INCREMENTS. A SMALLER TIME INCREMENT WILL BE 
   USED.
   UNIAXIAL CONSTRAINT COULD NOT BE SATISFIED FOR ELEMENT 3400027. THE PROBLEM 
   MAY BE CAUSED BY LARGE STRAIN INCREMENTS. A SMALLER TIME INCREMENT WILL BE 
   USED.
   UNIAXIAL CONSTRAINT COULD NOT BE SATISFIED FOR ELEMENT 3500027. THE PROBLEM 
   MAY BE CAUSED BY LARGE STRAIN INCREMENTS. A SMALLER TIME INCREMENT WILL BE 
   USED.
   UNIAXIAL CONSTRAINT COULD NOT BE SATISFIED FOR ELEMENT 3600027. THE PROBLEM 
   MAY BE CAUSED BY LARGE STRAIN INCREMENTS. A SMALLER TIME INCREMENT WILL BE 
   USED.
   UNIAXIAL CONSTRAINT COULD NOT BE SATISFIED FOR ELEMENT 3700027. THE PROBLEM 
   MAY BE CAUSED BY LARGE STRAIN INCREMENTS. A SMALLER TIME INCREMENT WILL BE 
   USED.
   UNIAXIAL CONSTRAINT COULD NOT BE SATISFIED FOR ELEMENT 3800027. THE PROBLEM 
   MAY BE CAUSED BY LARGE STRAIN INCREMENTS. A SMALLER TIME INCREMENT WILL BE 
   USED.
   UNIAXIAL CONSTRAINT COULD NOT BE SATISFIED FOR ELEMENT 3900027. THE PROBLEM 
   MAY BE CAUSED BY LARGE STRAIN INCREMENTS. A SMALLER TIME INCREMENT WILL BE 
   USED.
   UNIAXIAL CONSTRAINT COULD NOT BE SATISFIED FOR ELEMENT 4000027. THE PROBLEM 
   MAY BE CAUSED BY LARGE STRAIN INCREMENTS. A SMALLER TIME INCREMENT WILL BE 
   USED.
   UNIAXIAL CONSTRAINT COULD NOT BE SATISFIED FOR ELEMENT 4200027. THE PROBLEM 
   MAY BE CAUSED BY LARGE STRAIN INCREMENTS. A SMALLER TIME INCREMENT WILL BE 
   USED.
   UNIAXIAL CONSTRAINT COULD NOT BE SATISFIED FOR ELEMENT 4300027. THE PROBLEM 
   MAY BE CAUSED BY LARGE STRAIN INCREMENTS. A SMALLER TIME INCREMENT WILL BE 
   USED.
   UNIAXIAL CONSTRAINT COULD NOT BE SATISFIED FOR ELEMENT 4400027. THE PROBLEM 
   MAY BE CAUSED BY LARGE STRAIN INCREMENTS. A SMALLER TIME INCREMENT WILL BE 
   USED.
   UNIAXIAL CONSTRAINT COULD NOT BE SATISFIED FOR ELEMENT 4500027. THE PROBLEM 
   MAY BE CAUSED BY LARGE STRAIN INCREMENTS. A SMALLER TIME INCREMENT WILL BE 
   USED.
   UNIAXIAL CONSTRAINT COULD NOT BE SATISFIED FOR ELEMENT 4600027. THE PROBLEM 
   MAY BE CAUSED BY LARGE STRAIN INCREMENTS. A SMALLER TIME INCREMENT WILL BE 
   USED.
   UNIAXIAL CONSTRAINT COULD NOT BE SATISFIED FOR ELEMENT 4800027. THE PROBLEM 
   MAY BE CAUSED BY LARGE STRAIN INCREMENTS. A SMALLER TIME INCREMENT WILL BE 
   USED.
   UNIAXIAL CONSTRAINT COULD NOT BE SATISFIED FOR ELEMENT 4900027. THE PROBLEM 
   MAY BE CAUSED BY LARGE STRAIN INCREMENTS. A SMALLER TIME INCREMENT WILL BE 
   USED.
   UNIAXIAL CONSTRAINT COULD NOT BE SATISFIED FOR ELEMENT 5000027. THE PROBLEM 
   MAY BE CAUSED BY LARGE STRAIN INCREMENTS. A SMALLER TIME INCREMENT WILL BE 
   USED.
   UNIAXIAL CONSTRAINT COULD NOT BE SATISFIED FOR ELEMENT 5100027. THE PROBLEM 
   MAY BE CAUSED BY LARGE STRAIN INCREMENTS. A SMALLER TIME INCREMENT WILL BE 
   USED.
   UNIAXIAL CONSTRAINT COULD NOT BE SATISFIED FOR ELEMENT 5200027. THE PROBLEM 
   MAY BE CAUSED BY LARGE STRAIN INCREMENTS. A SMALLER TIME INCREMENT WILL BE 
   USED.
   UNIAXIAL CONSTRAINT COULD NOT BE SATISFIED FOR ELEMENT 5300027. THE PROBLEM 
   MAY BE CAUSED BY LARGE STRAIN INCREMENTS. A SMALLER TIME INCREMENT WILL BE 
   USED.
   UNIAXIAL CONSTRAINT COULD NOT BE SATISFIED FOR ELEMENT 5400027. THE PROBLEM 
   MAY BE CAUSED BY LARGE STRAIN INCREMENTS. A SMALLER TIME INCREMENT WILL BE 
   USED.
   UNIAXIAL CONSTRAINT COULD NOT BE SATISFIED FOR ELEMENT 5500027. THE PROBLEM 
   MAY BE CAUSED BY LARGE STRAIN INCREMENTS. A SMALLER TIME INCREMENT WILL BE 
   USED.
   UNIAXIAL CONSTRAINT COULD NOT BE SATISFIED FOR ELEMENT 5600027. THE PROBLEM 
   MAY BE CAUSED BY LARGE STRAIN INCREMENTS. A SMALLER TIME INCREMENT WILL BE 
   USED.
   UNIAXIAL CONSTRAINT COULD NOT BE SATISFIED FOR ELEMENT 5800027. THE PROBLEM 
   MAY BE CAUSED BY LARGE STRAIN INCREMENTS. A SMALLER TIME INCREMENT WILL BE 
   USED.
   UNIAXIAL CONSTRAINT COULD NOT BE SATISFIED FOR ELEMENT 5900027. THE PROBLEM 
   MAY BE CAUSED BY LARGE STRAIN INCREMENTS. A SMALLER TIME INCREMENT WILL BE 
   USED.
   UNIAXIAL CONSTRAINT COULD NOT BE SATISFIED FOR ELEMENT 6000027. THE PROBLEM 
   MAY BE CAUSED BY LARGE STRAIN INCREMENTS. A SMALLER TIME INCREMENT WILL BE 
   USED.
   UNIAXIAL CONSTRAINT COULD NOT BE SATISFIED FOR ELEMENT 6200027. THE PROBLEM 
[...]
        SOLVER ELAPSED TIME:  19s
 

 ***WARNING: THE SYSTEM MATRIX HAS 6 NEGATIVE EIGENVALUES.
             EXPLANATIONS ARE SUGGESTED AFTER THE FIRST OCCURRENCE OF THIS MESSAGE.

                   46 SEVERE DISCONTINUITIES OCCURRED DURING THIS ITERATION.
                    5 POINTS CHANGED FROM OPEN TO CLOSED
                    3 POINTS CHANGED FROM CLOSED TO OPEN
                   26 POINTS CHANGED FROM SLIPPING TO STICKING
                   12 POINTS CHANGED FROM STICKING TO SLIPPING

               CONVERGENCE CHECKS FOR SEVERE DISCONTINUITY ITERATION     2

   MAX. PENETRATION ERROR 6.55538E-03 AT NODE 8902721 OF CONTACT PAIR 
   (TREAD_TOP_SURFACE,ROAD_MASTER_SURFACE)
   MAX. CONTACT FORCE ERROR 2.57101     AT NODE 8902721 OF CONTACT PAIR 
   (TREAD_TOP_SURFACE,ROAD_MASTER_SURFACE)
          THE CONTACT CONSTRAINT ERRORS ARE WITHIN THE TOLERANCES.

 AVERAGE FORCE                       12.7       TIME AVG. FORCE        12.8    
 LARGEST SCALED RESIDUAL FORCE       139.       AT NODE     902742   DOF  1
  CORRESPONDING RESIDUAL FORCE       139.    
 LARGEST INCREMENT OF DISP.          4.55       AT NODE     802742   DOF  1
 LARGEST CORRECTION TO DISP.        -1.83       AT NODE    1002742   DOF  1
          FORCE     EQUILIBRIUM NOT ACHIEVED WITHIN TOLERANCE.

 AVERAGE MOMENT                     4.785E+03   TIME AVG. MOMENT      4.840E+03
 ALL MOMENT    RESIDUALS ARE ZERO
 LARGEST INCREMENT OF ROTATION     -3.272E-31   AT NODE          2   DOF  5
 LARGEST CORRECTION TO ROTATION    -3.760E-32   AT NODE          1   DOF  5
          THE MOMENT    EQUILIBRIUM EQUATIONS HAVE CONVERGED

 COMPATIBILITY ERRORS:
    TYPE                NUMBER EXCEEDING TOLERANCE  MAXIMUM ERROR        IN ELEMENT
 VOLUMETRIC                       9634                3.730E-03            1102284
 
	UNSYMMETRIC HYBRID DIRECT SPARSE SOLVER RUNNING ON
 	1 HOST x 1 MPI RANK PER HOST x 8 THREADS PER RANK
        NUMBER OF EQUATIONS:  291975
        NUMBER OF RHS:        1
        NUMBER OF FLOPS:      3.139e+12
        SOLVER ELAPSED TIME:  18s
 

 ***WARNING: THE SYSTEM MATRIX HAS 2 NEGATIVE EIGENVALUES.
             EXPLANATIONS ARE SUGGESTED AFTER THE FIRST OCCURRENCE OF THIS MESSAGE.

                   18 SEVERE DISCONTINUITIES OCCURRED DURING THIS ITERATION.
                    4 POINTS CHANGED FROM OPEN TO CLOSED
                    2 POINTS CHANGED FROM CLOSED TO OPEN
                    8 POINTS CHANGED FROM SLIPPING TO STICKING
                    4 POINTS CHANGED FROM STICKING TO SLIPPING

               CONVERGENCE CHECKS FOR SEVERE DISCONTINUITY ITERATION     3

   MAX. PENETRATION ERROR 31.5563E-03  AT NODE 1102184 OF CONTACT PAIR 
   (TREAD_TOP_SURFACE,ROAD_MASTER_SURFACE)
   MAX. CONTACT FORCE ERROR 9.74515     AT NODE 1102184 OF CONTACT PAIR 
   (TREAD_TOP_SURFACE,ROAD_MASTER_SURFACE)
          PENETRATION ERROR TOO LARGE COMPARED TO DISPLACEMENT INCREMENT.

 AVERAGE FORCE                       12.8       TIME AVG. FORCE        12.8    
 LARGEST SCALED RESIDUAL FORCE      -66.5       AT NODE    1002742   DOF  1
  CORRESPONDING RESIDUAL FORCE      -66.5    
 LARGEST INCREMENT OF DISP.          5.57       AT NODE    1002742   DOF  1
 LARGEST CORRECTION TO DISP.         1.72       AT NODE    1002742   DOF  1
          FORCE     EQUILIBRIUM NOT ACHIEVED WITHIN TOLERANCE.

 AVERAGE MOMENT                     4.764E+03   TIME AVG. MOMENT      4.838E+03
 ALL MOMENT    RESIDUALS ARE ZERO
 LARGEST INCREMENT OF ROTATION     -3.043E-31   AT NODE          2   DOF  5
 LARGEST CORRECTION TO ROTATION     2.307E-32   AT NODE          1   DOF  5
          THE MOMENT    EQUILIBRIUM EQUATIONS HAVE CONVERGED

 COMPATIBILITY ERRORS:
    TYPE                NUMBER EXCEEDING TOLERANCE  MAXIMUM ERROR        IN ELEMENT
 VOLUMETRIC                       3079               -2.642E-03            1002284
 
	UNSYMMETRIC HYBRID DIRECT SPARSE SOLVER RUNNING ON
 	1 HOST x 1 MPI RANK PER HOST x 8 THREADS PER RANK
        NUMBER OF EQUATIONS:  291976
        NUMBER OF RHS:        1
        NUMBER OF FLOPS:      3.139e+12
        SOLVER ELAPSED TIME:  19s

                    4 SEVERE DISCONTINUITIES OCCURRED DURING THIS ITERATION.
                    1 POINTS CHANGED FROM CLOSED TO OPEN
                    2 POINTS CHANGED FROM SLIPPING TO STICKING
                    1 POINTS CHANGED FROM STICKING TO SLIPPING

               CONVERGENCE CHECKS FOR SEVERE DISCONTINUITY ITERATION     4

   MAX. PENETRATION ERROR 27.6892E-06  AT NODE 1002742 OF CONTACT PAIR 
   (TREAD_TOP_SURFACE,ROAD_MASTER_SURFACE)
   MAX. CONTACT FORCE ERROR -53.0350E-03  AT NODE 8902710 OF CONTACT PAIR 
   (TREAD_TOP_SURFACE,ROAD_MASTER_SURFACE)
          THE CONTACT CONSTRAINT ERRORS ARE WITHIN THE TOLERANCES.

 AVERAGE FORCE                       12.8       TIME AVG. FORCE        12.8    
 LARGEST SCALED RESIDUAL FORCE       19.2       AT NODE    1002742   DOF  1
  CORRESPONDING RESIDUAL FORCE       19.2    
 LARGEST INCREMENT OF DISP.          4.88       AT NODE     902730   DOF  1
 LARGEST CORRECTION TO DISP.       -0.891       AT NODE    1002742   DOF  1
          FORCE     EQUILIBRIUM NOT ACHIEVED WITHIN TOLERANCE.

 AVERAGE MOMENT                     4.765E+03   TIME AVG. MOMENT      4.838E+03
 ALL MOMENT    RESIDUALS ARE ZERO
 LARGEST INCREMENT OF ROTATION     -3.038E-31   AT NODE          2   DOF  5
 LARGEST CORRECTION TO ROTATION    -5.842E-34   AT NODE          1   DOF  4
          THE MOMENT    EQUILIBRIUM EQUATIONS HAVE CONVERGED

 COMPATIBILITY ERRORS:
    TYPE                NUMBER EXCEEDING TOLERANCE  MAXIMUM ERROR        IN ELEMENT
 VOLUMETRIC                        102               -2.393E-03            1002286
 
	UNSYMMETRIC HYBRID DIRECT SPARSE SOLVER RUNNING ON
 	1 HOST x 1 MPI RANK PER HOST x 8 THREADS PER RANK
        NUMBER OF EQUATIONS:  291976
        NUMBER OF RHS:        1
        NUMBER OF FLOPS:      3.139e+12
        SOLVER ELAPSED TIME:  17s

                    1 SEVERE DISCONTINUITIES OCCURRED DURING THIS ITERATION.
                    1 POINTS CHANGED FROM SLIPPING TO STICKING

               CONVERGENCE CHECKS FOR SEVERE DISCONTINUITY ITERATION     5

   MAX. PENETRATION ERROR -1.78711E-06 AT NODE 1102742 OF CONTACT PAIR 
   (TREAD_TOP_SURFACE,ROAD_MASTER_SURFACE)
   MAX. CONTACT FORCE ERROR -647.879E-06   AT NODE 1102742 OF CONTACT PAIR 
   (TREAD_TOP_SURFACE,ROAD_MASTER_SURFACE)
          THE CONTACT CONSTRAINT ERRORS ARE WITHIN THE TOLERANCES.

 AVERAGE FORCE                       12.8       TIME AVG. FORCE        12.8    
 LARGEST SCALED RESIDUAL FORCE     -0.412       AT NODE    1002742   DOF  1
  CORRESPONDING RESIDUAL FORCE     -0.412    
 LARGEST INCREMENT OF DISP.          4.88       AT NODE     902730   DOF  1
 LARGEST CORRECTION TO DISP.        0.151       AT NODE    1002742   DOF  1
          FORCE     EQUILIBRIUM NOT ACHIEVED WITHIN TOLERANCE.

 AVERAGE MOMENT                     4.764E+03   TIME AVG. MOMENT      4.838E+03
 ALL MOMENT    RESIDUALS ARE ZERO
 LARGEST INCREMENT OF ROTATION     -3.035E-31   AT NODE          2   DOF  5
 LARGEST CORRECTION TO ROTATION     3.545E-34   AT NODE          1   DOF  5
          THE MOMENT    EQUILIBRIUM EQUATIONS HAVE CONVERGED

 COMPATIBILITY ERRORS:
    TYPE                NUMBER EXCEEDING TOLERANCE  MAXIMUM ERROR        IN ELEMENT
 VOLUMETRIC                          8               -1.036E-04            1002286
 
	UNSYMMETRIC HYBRID DIRECT SPARSE SOLVER RUNNING ON
 	1 HOST x 1 MPI RANK PER HOST x 8 THREADS PER RANK
        NUMBER OF EQUATIONS:  291976
        NUMBER OF RHS:        1
        NUMBER OF FLOPS:      3.139e+12
        SOLVER ELAPSED TIME:  17s

               CONVERGENCE CHECKS FOR EQUILIBRIUM ITERATION     1

   MAX. PENETRATION ERROR 2.96534E-09 AT NODE 1002738 OF CONTACT PAIR 
   (TREAD_TOP_SURFACE,ROAD_MASTER_SURFACE)
   MAX. CONTACT FORCE ERROR 929.006E-09   AT NODE 1002738 OF CONTACT PAIR 
   (TREAD_TOP_SURFACE,ROAD_MASTER_SURFACE)
          THE CONTACT CONSTRAINTS HAVE CONVERGED.

 AVERAGE FORCE                       12.8       TIME AVG. FORCE        12.8    
 LARGEST SCALED RESIDUAL FORCE      8.171E-04   AT NODE    1002742   DOF  2
  CORRESPONDING RESIDUAL FORCE      8.171E-04
 LARGEST INCREMENT OF DISP.          4.88       AT NODE     902730   DOF  1
 LARGEST CORRECTION TO DISP.       -5.412E-03   AT NODE    1002742   DOF  1
          THE FORCE     EQUILIBRIUM EQUATIONS HAVE CONVERGED

 AVERAGE MOMENT                     4.764E+03   TIME AVG. MOMENT      4.838E+03
 ALL MOMENT    RESIDUALS ARE ZERO
 LARGEST INCREMENT OF ROTATION     -3.035E-31   AT NODE          2   DOF  5
 LARGEST CORRECTION TO ROTATION     9.251E-37   AT NODE          2   DOF  6
          THE MOMENT    EQUILIBRIUM RESPONSE WAS LINEAR IN THIS INCREMENT

 COMPATIBILITY ERRORS:
    TYPE                NUMBER EXCEEDING TOLERANCE  MAXIMUM ERROR        IN ELEMENT
 VOLUMETRIC                          0               -4.880E-08            1002286

 ITERATION SUMMARY FOR THE INCREMENT:   6 TOTAL ITERATIONS, OF WHICH
   5 ARE SEVERE DISCONTINUITY ITERATIONS AND  1 ARE EQUILIBRIUM ITERATIONS.

 TIME INCREMENT COMPLETED  0.150    ,  FRACTION OF STEP COMPLETED  0.894    
 STEP TIME COMPLETED       0.894    ,  TOTAL TIME COMPLETED         5.89    


  INCREMENT    12 STARTS. ATTEMPT NUMBER  1, TIME INCREMENT  0.106    

                   31 SEVERE DISCONTINUITIES OCCURRED DURING INCREMENT ATTEMPT INITIALIZATION.
                   10 POINTS CHANGED FROM SLIPPING TO STICKING
                   19 POINTS CHANGED FROM STICKING TO SLIPPING
                    2 POINTS CHANGED TO SLIPPING WITH NEGATIVE CPRESS
 
	UNSYMMETRIC HYBRID DIRECT SPARSE SOLVER RUNNING ON
 	1 HOST x 1 MPI RANK PER HOST x 8 THREADS PER RANK
        NUMBER OF EQUATIONS:  291976
        NUMBER OF RHS:        1
        NUMBER OF FLOPS:      3.139e+12
        SOLVER ELAPSED TIME:  19s

                   55 SEVERE DISCONTINUITIES OCCURRED DURING THIS ITERATION.
                    9 POINTS CHANGED FROM OPEN TO CLOSED
                    7 POINTS CHANGED FROM CLOSED TO OPEN
                   30 POINTS CHANGED FROM SLIPPING TO STICKING
                    9 POINTS CHANGED FROM STICKING TO SLIPPING

               CONVERGENCE CHECKS FOR SEVERE DISCONTINUITY ITERATION     1

   MAX. PENETRATION ERROR 31.3814E-03  AT NODE 2650 OF CONTACT PAIR 
   (TREAD_TOP_SURFACE,ROAD_MASTER_SURFACE)
   MAX. CONTACT FORCE ERROR 9.04630     AT NODE 2650 OF CONTACT PAIR 
   (TREAD_TOP_SURFACE,ROAD_MASTER_SURFACE)
          PENETRATION ERROR TOO LARGE COMPARED TO DISPLACEMENT INCREMENT.

 AVERAGE FORCE                       12.8       TIME AVG. FORCE        12.8    
 LARGEST SCALED RESIDUAL FORCE      -52.8       AT NODE     902184   DOF  1
  CORRESPONDING RESIDUAL FORCE      -52.8    
 LARGEST INCREMENT OF DISP.          4.28       AT NODE     902701   DOF  1
 LARGEST CORRECTION TO DISP.         1.21       AT NODE     902701   DOF  1
          FORCE     EQUILIBRIUM NOT ACHIEVED WITHIN TOLERANCE.

 AVERAGE MOMENT                     4.761E+03   TIME AVG. MOMENT      4.831E+03
 ALL MOMENT    RESIDUALS ARE ZERO
 LARGEST INCREMENT OF ROTATION     -2.811E-31   AT NODE          2   DOF  4
 LARGEST CORRECTION TO ROTATION     8.621E-32   AT NODE          1   DOF  5
          THE MOMENT    EQUILIBRIUM EQUATIONS HAVE CONVERGED

 COMPATIBILITY ERRORS:
    TYPE                NUMBER EXCEEDING TOLERANCE  MAXIMUM ERROR        IN ELEMENT
 VOLUMETRIC                       2208               -2.571E-03            1002268
 
	UNSYMMETRIC HYBRID DIRECT SPARSE SOLVER RUNNING ON
 	1 HOST x 1 MPI RANK PER HOST x 8 THREADS PER RANK
        NUMBER OF EQUATIONS:  291975
        NUMBER OF RHS:        1
        NUMBER OF FLOPS:      3.139e+12
        SOLVER ELAPSED TIME:  17s
 

 ***WARNING: THE SYSTEM MATRIX HAS 2 NEGATIVE EIGENVALUES.
             EXPLANATIONS ARE SUGGESTED AFTER THE FIRST OCCURRENCE OF THIS MESSAGE.

                   15 SEVERE DISCONTINUITIES OCCURRED DURING THIS ITERATION.
                    1 POINTS CHANGED FROM OPEN TO CLOSED
                    2 POINTS CHANGED FROM CLOSED TO OPEN
                    7 POINTS CHANGED FROM SLIPPING TO STICKING
                    5 POINTS CHANGED FROM STICKING TO SLIPPING

               CONVERGENCE CHECKS FOR SEVERE DISCONTINUITY ITERATION     2

   MAX. PENETRATION ERROR 1.27769E-03 AT NODE 9602097 OF CONTACT PAIR 
   (LOWER_RIM_SLAVE_SURFACE,LOWER_RIM_MASTER_SURFACE)
   MAX. CONTACT FORCE ERROR 467.477E-03   AT NODE 9602097 OF CONTACT PAIR 
   (LOWER_RIM_SLAVE_SURFACE,LOWER_RIM_MASTER_SURFACE)
          THE CONTACT CONSTRAINT ERRORS ARE WITHIN THE TOLERANCES.

 AVERAGE FORCE                       12.8       TIME AVG. FORCE        12.8    
 LARGEST SCALED RESIDUAL FORCE       64.2       AT NODE     902720   DOF  1
  CORRESPONDING RESIDUAL FORCE       64.2    
 LARGEST INCREMENT OF DISP.          3.56       AT NODE    1002742   DOF  1
 LARGEST CORRECTION TO DISP.        -1.06       AT NODE     902701   DOF  1
          FORCE     EQUILIBRIUM NOT ACHIEVED WITHIN TOLERANCE.

 AVERAGE MOMENT                     4.756E+03   TIME AVG. MOMENT      4.831E+03
 ALL MOMENT    RESIDUALS ARE ZERO
 LARGEST INCREMENT OF ROTATION     -2.804E-31   AT NODE          2   DOF  4
 LARGEST CORRECTION TO ROTATION    -1.558E-32   AT NODE          2   DOF  5
          THE MOMENT    EQUILIBRIUM EQUATIONS HAVE CONVERGED

 COMPATIBILITY ERRORS:
    TYPE                NUMBER EXCEEDING TOLERANCE  MAXIMUM ERROR        IN ELEMENT
 VOLUMETRIC                        603               -1.612E-03             902247
 
	UNSYMMETRIC HYBRID DIRECT SPARSE SOLVER RUNNING ON
 	1 HOST x 1 MPI RANK PER HOST x 8 THREADS PER RANK
        NUMBER OF EQUATIONS:  291975
        NUMBER OF RHS:        1
        NUMBER OF FLOPS:      3.139e+12
        SOLVER ELAPSED TIME:  17s

                    4 SEVERE DISCONTINUITIES OCCURRED DURING THIS ITERATION.
                    1 POINTS CHANGED FROM OPEN TO CLOSED
                    3 POINTS CHANGED FROM STICKING TO SLIPPING

               CONVERGENCE CHECKS FOR SEVERE DISCONTINUITY ITERATION     3

   MAX. PENETRATION ERROR 2.31575E-03 AT NODE 1002684 OF CONTACT PAIR 
   (TREAD_TOP_SURFACE,ROAD_MASTER_SURFACE)
   MAX. CONTACT FORCE ERROR 461.446E-03   AT NODE 1002684 OF CONTACT PAIR 
   (TREAD_TOP_SURFACE,ROAD_MASTER_SURFACE)
          THE CONTACT CONSTRAINT ERRORS ARE WITHIN THE TOLERANCES.

 AVERAGE FORCE                       12.8       TIME AVG. FORCE        12.8    
 LARGEST SCALED RESIDUAL FORCE       5.60       AT NODE     902720   DOF  1
  CORRESPONDING RESIDUAL FORCE       5.60    
 LARGEST INCREMENT OF DISP.          3.65       AT NODE    1002728   DOF  1
 LARGEST CORRECTION TO DISP.        0.550       AT NODE     902730   DOF  1
          FORCE     EQUILIBRIUM NOT ACHIEVED WITHIN TOLERANCE.

 AVERAGE MOMENT                     4.753E+03   TIME AVG. MOMENT      4.831E+03
 ALL MOMENT    RESIDUALS ARE ZERO
 LARGEST INCREMENT OF ROTATION     -2.805E-31   AT NODE          2   DOF  4
 LARGEST CORRECTION TO ROTATION     5.461E-33   AT NODE          1   DOF  5
          THE MOMENT    EQUILIBRIUM EQUATIONS HAVE CONVERGED

 COMPATIBILITY ERRORS:
    TYPE                NUMBER EXCEEDING TOLERANCE  MAXIMUM ERROR        IN ELEMENT
 VOLUMETRIC                        134                6.743E-04             802264
 
	UNSYMMETRIC HYBRID DIRECT SPARSE SOLVER RUNNING ON
 	1 HOST x 1 MPI RANK PER HOST x 8 THREADS PER RANK
        NUMBER OF EQUATIONS:  291975
        NUMBER OF RHS:        1
        NUMBER OF FLOPS:      3.139e+12
        SOLVER ELAPSED TIME:  18s

               CONVERGENCE CHECKS FOR EQUILIBRIUM ITERATION     1

   MAX. PENETRATION ERROR -1.04734E-06 AT NODE 1002701 OF CONTACT PAIR 
   (TREAD_TOP_SURFACE,ROAD_MASTER_SURFACE)
   MAX. CONTACT FORCE ERROR -361.380E-06   AT NODE 1102720 OF CONTACT PAIR 
   (TREAD_TOP_SURFACE,ROAD_MASTER_SURFACE)
          THE CONTACT CONSTRAINTS HAVE CONVERGED.

 AVERAGE FORCE                       12.8       TIME AVG. FORCE        12.8    
 LARGEST SCALED RESIDUAL FORCE     -0.121       AT NODE     902720   DOF  1
  CORRESPONDING RESIDUAL FORCE     -0.121    
 LARGEST INCREMENT OF DISP.          3.66       AT NODE    1002728   DOF  1
 LARGEST CORRECTION TO DISP.        4.815E-02   AT NODE     902720   DOF  1
          FORCE     EQUILIBRIUM NOT ACHIEVED WITHIN TOLERANCE.

 AVERAGE MOMENT                     4.752E+03   TIME AVG. MOMENT      4.831E+03
 ALL MOMENT    RESIDUALS ARE ZERO
 LARGEST INCREMENT OF ROTATION     -2.804E-31   AT NODE          2   DOF  4
 LARGEST CORRECTION TO ROTATION     2.274E-34   AT NODE          1   DOF  5
          THE MOMENT    EQUILIBRIUM RESPONSE WAS LINEAR IN THIS INCREMENT

 COMPATIBILITY ERRORS:
    TYPE                NUMBER EXCEEDING TOLERANCE  MAXIMUM ERROR        IN ELEMENT
 VOLUMETRIC                          1               -1.564E-05             902264
 
	UNSYMMETRIC HYBRID DIRECT SPARSE SOLVER RUNNING ON
 	1 HOST x 1 MPI RANK PER HOST x 8 THREADS PER RANK
        NUMBER OF EQUATIONS:  291975
        NUMBER OF RHS:        1
        NUMBER OF FLOPS:      3.139e+12
        SOLVER ELAPSED TIME:  18s

               CONVERGENCE CHECKS FOR EQUILIBRIUM ITERATION     2

   MAX. PENETRATION ERROR 239.072E-12   AT NODE 1102720 OF CONTACT PAIR 
   (TREAD_TOP_SURFACE,ROAD_MASTER_SURFACE)
   MAX. CONTACT FORCE ERROR 96.3018E-09  AT NODE 1102720 OF CONTACT PAIR 
   (TREAD_TOP_SURFACE,ROAD_MASTER_SURFACE)
          THE CONTACT CONSTRAINTS HAVE CONVERGED.

 AVERAGE FORCE                       12.8       TIME AVG. FORCE        12.8    
 LARGEST SCALED RESIDUAL FORCE     -7.364E-05   AT NODE    1002721   DOF  1
  CORRESPONDING RESIDUAL FORCE     -7.364E-05
 LARGEST INCREMENT OF DISP.          3.66       AT NODE    1002728   DOF  1
 LARGEST CORRECTION TO DISP.       -1.225E-03   AT NODE    1002720   DOF  1
          THE FORCE     EQUILIBRIUM EQUATIONS HAVE CONVERGED

 AVERAGE MOMENT                     4.752E+03   TIME AVG. MOMENT      4.831E+03
 ALL MOMENT    RESIDUALS ARE ZERO
 LARGEST INCREMENT OF ROTATION     -2.804E-31   AT NODE          2   DOF  4
 LARGEST CORRECTION TO ROTATION    -4.407E-36   AT NODE          2   DOF  5
          THE MOMENT    EQUILIBRIUM EQUATIONS HAVE CONVERGED

 COMPATIBILITY ERRORS:
    TYPE                NUMBER EXCEEDING TOLERANCE  MAXIMUM ERROR        IN ELEMENT
 VOLUMETRIC                          0               -5.467E-09             902264

 ITERATION SUMMARY FOR THE INCREMENT:   5 TOTAL ITERATIONS, OF WHICH
   3 ARE SEVERE DISCONTINUITY ITERATIONS AND  2 ARE EQUILIBRIUM ITERATIONS.

 TIME INCREMENT COMPLETED  0.106    ,  FRACTION OF STEP COMPLETED   1.00    
 STEP TIME COMPLETED        1.00    ,  TOTAL TIME COMPLETED         6.00    

     RESTART INFORMATION WRITTEN IN STEP   6  AFTER INCREMENT    12


          THE ANALYSIS HAS BEEN COMPLETED



     ANALYSIS SUMMARY:
     TOTAL OF         54  INCREMENTS
                      12  CUTBACKS IN AUTOMATIC INCREMENTATION
                     324  ITERATIONS INCLUDING CONTACT ITERATIONS IF PRESENT
                     324  PASSES THROUGH THE EQUATION SOLVER OF WHICH 
                     324  INVOLVE MATRIX DECOMPOSITION, INCLUDING
                       0  DECOMPOSITION(S) OF THE MASS MATRIX
                       1  REORDERING OF EQUATIONS TO MINIMIZE WAVEFRONT
                       0  ADDITIONAL RESIDUAL EVALUATIONS FOR LINE SEARCHES
                       0  ADDITIONAL OPERATOR EVALUATIONS FOR LINE SEARCHES
                       3  WARNING MESSAGES DURING USER INPUT PROCESSING
                     163  WARNING MESSAGES DURING ANALYSIS
                       0  ANALYSIS WARNINGS ARE NUMERICAL PROBLEM MESSAGES
                      59  ANALYSIS WARNINGS ARE NEGATIVE EIGENVALUE MESSAGES
                       0  ERROR MESSAGES



     JOB TIME SUMMARY
       USER TIME (SEC)      =     1.07E+04
       SYSTEM TIME (SEC)    =     1.53E+02
       TOTAL CPU TIME (SEC) =     1.09E+04
       WALLCLOCK TIME (SEC) =         2765
       MEMORY PEAK (GB)     =           11
