 Abaqus/Standard 2024.HF5                  DATE 16-Oct-2025 TIME 12:28:45
 SUMMARY OF JOB INFORMATION:
 STEP  INC ATT SEVERE EQUIL TOTAL  TOTAL      STEP       INC OF       DOF    IF
               DISCON ITERS ITERS  TIME/    TIME/LPF    TIME/LPF    MONITOR RIKS
               ITERS               FREQ
   6     1   1U    0     1     1  5.00       0.000      1.000     
   6     1   2     6     0     6  5.25       0.250      0.2500    
   6     2   1U    1     1     2  5.25       0.250      0.2500    
   6     2   2     2     1     3  5.31       0.313      0.06250   
   6     3   1U   12     0    12  5.31       0.313      0.09375   
   6     3   2     1     1     2  5.34       0.336      0.02344   
   6     4   1     3     0     3  5.37       0.371      0.03516   
   6     5   1     2     1     3  5.42       0.424      0.05273   
   6     6   1     2     1     3  5.50       0.503      0.07910   
   6     7   1U    7     1     8  5.50       0.503      0.1187    
   6     7   2     1     1     2  5.53       0.533      0.02966   
   6     8   1     2     1     3  5.58       0.577      0.04449   
   6     9   1     2     1     3  5.64       0.644      0.06674   
   6    10   1     4     1     5  5.74       0.744      0.1001    
   6    11   1     5     1     6  5.89       0.894      0.1502    
   6    12   1     3     2     5  6.00       1.00       0.1059    
                          
 THE ANALYSIS HAS COMPLETED SUCCESSFULLY
