 Abaqus/Standard 2024.HF5                  DATE 16-Oct-2025 TIME 13:17:03
 SUMMARY OF JOB INFORMATION:
 STEP  INC ATT SEVERE EQUIL TOTAL  TOTAL      STEP       INC OF       DOF    IF
               DISCON ITERS ITERS  TIME/    TIME/LPF    TIME/LPF    MONITOR RIKS
               ITERS               FREQ
   7     1   1     3     1     4  6.02       0.0200     0.02000   
   7     2   1     3     1     4  6.04       0.0400     0.02000   
   7     3   1     3     1     4  6.06       0.0600     0.02000   
   7     4   1     2     2     4  6.08       0.0800     0.02000   
   7     5   1     2     3     5  6.10       0.100      0.02000   
   7     6   1     2     2     4  6.12       0.120      0.02000   
   7     7   1     3     1     4  6.14       0.140      0.02000   
   7     8   1     3     1     4  6.16       0.160      0.02000   
   7     9   1U    1     1     2  6.16       0.160      0.02000   
   7     9   2     2     1     3  6.16       0.165      0.005000  
   7    10   1     3     1     4  6.17       0.173      0.007500  
   7    11   1     5     1     6  6.18       0.184      0.01125   
   7    12   1     3     1     4  6.20       0.201      0.01688   
   7    13   1     3     1     4  6.22       0.221      0.02000   
   7    14   1     2     1     3  6.24       0.241      0.02000   
   7    15   1     2     1     3  6.26       0.261      0.02000   
   7    16   1     2     1     3  6.28       0.281      0.02000   
   7    17   1     2     1     3  6.30       0.301      0.02000   
   7    18   1     2     1     3  6.32       0.321      0.02000   
   7    19   1     2     1     3  6.34       0.341      0.02000   
   7    20   1     2     1     3  6.36       0.361      0.02000   
   7    21   1     1     1     2  6.38       0.381      0.02000   
   7    22   1     1     1     2  6.40       0.401      0.02000   
   7    23   1     1     1     2  6.42       0.421      0.02000   
   7    24   1     2     0     2  6.44       0.441      0.02000   
   7    25   1     1     1     2  6.46       0.461      0.02000   
   7    26   1     2     1     3  6.48       0.481      0.02000   
   7    27   1     1     1     2  6.50       0.501      0.02000   
   7    28   1     2     0     2  6.52       0.521      0.02000   
   7    29   1     1     1     2  6.54       0.541      0.02000   
   7    30   1     1     1     2  6.56       0.561      0.02000   
   7    31   1     1     1     2  6.58       0.581      0.02000   
   7    32   1     0     2     2  6.60       0.601      0.02000   
   7    33   1     0     1     1  6.62       0.621      0.02000   
   7    34   1     2     1     3  6.64       0.641      0.02000   
   7    35   1     1     1     2  6.66       0.661      0.02000   
   7    36   1     1     1     2  6.68       0.681      0.02000   
   7    37   1     1     1     2  6.70       0.701      0.02000   
   7    38   1     1     1     2  6.72       0.721      0.02000   
   7    39   1     0     2     2  6.74       0.741      0.02000   
   7    40   1     1     1     2  6.76       0.761      0.02000   
   7    41   1     1     1     2  6.78       0.781      0.02000   
   7    42   1     1     1     2  6.80       0.801      0.02000   
   7    43   1     2     0     2  6.82       0.821      0.02000   
   7    44   1     1     1     2  6.84       0.841      0.02000   
   7    45   1     1     1     2  6.86       0.861      0.02000   
   7    46   1     1     1     2  6.88       0.881      0.02000   
   7    47   1     1     1     2  6.90       0.901      0.02000   
   7    48   1     1     1     2  6.92       0.921      0.02000   
   7    49   1     1     1     2  6.94       0.941      0.02000   
   7    50   1     1     1     2  6.96       0.961      0.02000   
   7    51   1     1     1     2  6.98       0.981      0.02000   
   7    52   1     1     1     2  7.00       1.00       0.01937   
                          
 THE ANALYSIS HAS COMPLETED SUCCESSFULLY
