1

   Abaqus 2024.HF5                                  Date 16-Oct-2025   Time 13:13:55
   For use by APOLLO TYRES LTD under license from Dassault Systemes or its subsidiary.

 Project name:                                                                   
 FREEROLL                                                                        
 STEP    7     INCREMENT     1     STEP TIME    0.00    


                  S T E P       7     S T E A D Y   S T A T E   T R A N S P O R T   A N A L Y S I S


          FREEROLL                                                                        

     AUTOMATIC TIME CONTROL WITH -
          A SUGGESTED INITIAL TIME INCREMENT OF                2.000E-02
          AND A TOTAL TIME PERIOD OF                            1.00    
          THE MINIMUM TIME INCREMENT ALLOWED IS                1.000E-05
          THE MAXIMUM TIME INCREMENT ALLOWED IS                2.000E-02

     INERTIA EFFECTS ARE INCLUDED IN THIS STEP.
     INERTIA STABILIZATION FACTOR =   1.00    

 CONVERGENCE TOLERANCE PARAMETERS FOR FORCE    
     CRITERION FOR RESIDUAL FORCE     FOR A NONLINEAR PROBLEM          5.000E-03
     CRITERION FOR DISP.    CORRECTION IN A NONLINEAR PROBLEM          1.000E-02
     INIT. VALUE OF TIME AVG. FORCE     IS TIME AVG. FORCE     IN PREVIOUS STEP
     AVERAGE FORCE     IS TIME AVERAGE FORCE    
     ALTERNATE CRIT. FOR RESIDUAL FORCE     FOR A NONLINEAR PROBLEM    2.000E-02
     CRITERION FOR ZERO FORCE     RELATIVE TO TIME AVRG. FORCE         1.000E-05
     CRITERION FOR RESIDUAL FORCE     WHEN THERE IS ZERO FLUX          1.000E-05
     CRITERION FOR DISP.    CORRECTION WHEN THERE IS ZERO FLUX         1.000E-03
     CRITERION FOR RESIDUAL FORCE     FOR A LINEAR INCREMENT           1.000E-08
     FIELD CONVERSION RATIO                                             1.00    
     CRITERION FOR ZERO FORCE     REL. TO TIME AVRG. MAX. FORCE        1.000E-05
     CRITERION FOR ZERO DISP.    RELATIVE TO CHARACTERISTIC LENGTH     1.000E-08

 CONVERGENCE TOLERANCE PARAMETERS FOR MOMENT   
     CRITERION FOR RESIDUAL MOMENT    FOR A NONLINEAR PROBLEM          5.000E-03
     CRITERION FOR ROTATION CORRECTION IN A NONLINEAR PROBLEM          1.000E-02
     INIT. VALUE OF TIME AVG. MOMENT    IS TIME AVG. MOMENT    IN PREVIOUS STEP
     AVERAGE MOMENT    IS TIME AVERAGE MOMENT   
     ALTERNATE CRIT. FOR RESIDUAL MOMENT    FOR A NONLINEAR PROBLEM    2.000E-02
     CRITERION FOR ZERO MOMENT    RELATIVE TO TIME AVRG. MOMENT        1.000E-05
     CRITERION FOR RESIDUAL MOMENT    WHEN THERE IS ZERO FLUX          1.000E-05
     CRITERION FOR ROTATION CORRECTION WHEN THERE IS ZERO FLUX         1.000E-03
     CRITERION FOR RESIDUAL MOMENT    FOR A LINEAR INCREMENT           1.000E-08
     FIELD CONVERSION RATIO                                             1.00    
     CRITERION FOR ZERO MOMENT    REL. TO TIME AVRG. MAX. MOMENT       1.000E-05

     VOLUMETRIC STRAIN COMPATIBILITY TOLERANCE FOR HYBRID SOLIDS       1.000E-05
     AXIAL STRAIN COMPATIBILITY TOLERANCE FOR HYBRID BEAMS             1.000E-05
     TRANS. SHEAR STRAIN COMPATIBILITY TOLERANCE FOR HYBRID BEAMS      1.000E-05
     SOFT CONTACT CONSTRAINT COMPATIBILITY TOLERANCE FOR P>P0          5.000E-03
     SOFT CONTACT CONSTRAINT COMPATIBILITY TOLERANCE FOR P=0.0         0.100    
     CONTACT FORCE ERROR TOLERANCE FOR CONVERT SDI=YES                 1.00    
     DISPLACEMENT COMPATIBILITY TOLERANCE FOR DCOUP ELEMENTS           1.000E-05
     ROTATION COMPATIBILITY TOLERANCE FOR DCOUP ELEMENTS               1.000E-05

 EQUILIBRIUM WILL BE CHECKED FOR SEVERE DISCONTINUITY ITERATIONS

 TIME INCREMENTATION CONTROL PARAMETERS:
 *** FIRST EQUILIBRIUM ITERATION FOR CONSECUTIVE DIVERGENCE CHECK              8
 *** EQUILIBRIUM ITERATION AT WHICH LOG. CONVERGENCE RATE CHECK BEGINS        10
     EQUILIBRIUM ITERATION AFTER WHICH ALTERNATE RESIDUAL IS USED              9
     MAXIMUM EQUILIBRIUM ITERATIONS ALLOWED                                   16
     EQUILIBRIUM ITERATION COUNT FOR CUT-BACK IN NEXT INCREMENT               10
     MAXIMUM EQUILIB. ITERS IN TWO INCREMENTS FOR TIME INCREMENT INCREASE      4
     MAXIMUM ITERATIONS FOR SEVERE DISCONTINUITIES                            50
     MAXIMUM ATTEMPTS ALLOWED IN AN INCREMENT                                  5
     MAXIMUM DISCON. ITERS IN TWO INCREMENTS FOR TIME INCREMENT INCREASE      50
     MAXIMUM CONTACT AUGMENTATIONS FOR *SURFACE BEHAVIOR,AUGMENTED LAGRANGE   50
     CUT-BACK FACTOR AFTER DIVERGENCE                                 0.2500    
     CUT-BACK FACTOR FOR TOO SLOW CONVERGENCE                         0.5000    
     CUT-BACK FACTOR AFTER TOO MANY EQUILIBRIUM ITERATIONS            0.7500    
     CUT-BACK FACTOR AFTER TOO MANY SEVERE DISCONTINUITY ITERATIONS   0.2500    
     CUT-BACK FACTOR AFTER PROBLEMS IN ELEMENT ASSEMBLY               0.2500    
     INCREASE FACTOR AFTER TWO INCREMENTS THAT CONVERGE QUICKLY        1.500    
     MAX. TIME INCREMENT INCREASE FACTOR ALLOWED                       1.500    
     MAX. TIME INCREMENT INCREASE FACTOR ALLOWED (DYNAMICS)            1.250    
     MAX. TIME INCREMENT INCREASE FACTOR ALLOWED (DIFFUSION)           2.000    
     MINIMUM TIME INCREMENT RATIO FOR EXTRAPOLATION TO OCCUR          0.1000    
     MAX. RATIO OF TIME INCREMENT TO STABILITY LIMIT                   1.000    
     FRACTION OF STABILITY LIMIT FOR NEW TIME INCREMENT               0.9500    
     TIME INCREMENT INCREASE FACTOR BEFORE A TIME POINT                1.000    

 *** INDICATES USE OF NON-DEFAULT TIME INCREMENTATION CONTROL PARAMETER
     SELECTED WITH *CONTROLS

 CONTACT CONTROLS APPLIED TO ALL CONTACT PAIRS:
     GLOBAL STABILIZATION CONTROL IS NOT USED

          PRINT OF INCREMENT NUMBER, TIME, ETC., EVERY    1  INCREMENTS

     RESTART FILE WILL BE WRITTEN EVERY   100  INCREMENTS

     THE MAXIMUM NUMBER OF INCREMENTS IN THIS STEP IS                     300

          LARGE DISPLACEMENT THEORY WILL BE USED

          UNSYMMETRIC MATRIX STORAGE AND SOLUTION WILL BE USED

     LINEAR EXTRAPOLATION WILL BE USED

     CHARACTERISTIC ELEMENT LENGTH      10.1    

     DETAILS REGARDING ACTUAL SOLUTION WAVEFRONT REQUESTED

     DETAILED OUTPUT OF DIAGNOSTICS TO DATABASE REQUESTED

     PRINT OF INCREMENT NUMBER, TIME, ETC., TO THE MESSAGE FILE EVERY     1  INCREMENTS

     ELEMENT OPERATIONS WILL NOT BE CARRIED OUT IN PARALLEL

     COLLECTING MODEL CONSTRAINT INFORMATION FOR OVERCONSTRAINT CHECKS

     COLLECTING STEP CONSTRAINT INFORMATION FOR OVERCONSTRAINT CHECKS


  INCREMENT     1 STARTS. ATTEMPT NUMBER  1, TIME INCREMENT  2.000E-02

                   18 SEVERE DISCONTINUITIES OCCURRED DURING INCREMENT ATTEMPT INITIALIZATION.
                   18 POINTS CHANGED FROM STICKING TO SLIPPING
 
	UNSYMMETRIC HYBRID DIRECT SPARSE SOLVER RUNNING ON
 	1 HOST x 1 MPI RANK PER HOST x 8 THREADS PER RANK
        NUMBER OF EQUATIONS:  291975
        NUMBER OF RHS:        1
        NUMBER OF FLOPS:      3.014e+12
        SOLVER ELAPSED TIME:  18s
 

 ***WARNING: THE SYSTEM MATRIX HAS 4 NEGATIVE EIGENVALUES.

     NEGATIVE EIGENVALUES MEAN THAT THE SYSTEM MATRIX IS NOT 
     POSITIVE DEFINITE:
     FOR EXAMPLE, A BIFURCATION (BUCKLING) LOAD MAY HAVE BEEN EXCEEDED.

                   55 SEVERE DISCONTINUITIES OCCURRED DURING THIS ITERATION.
                    7 POINTS CHANGED FROM OPEN TO CLOSED
                   10 POINTS CHANGED FROM CLOSED TO OPEN
                   28 POINTS CHANGED FROM SLIPPING TO STICKING
                   10 POINTS CHANGED FROM STICKING TO SLIPPING

               CONVERGENCE CHECKS FOR SEVERE DISCONTINUITY ITERATION     1

   MAX. PENETRATION ERROR 27.3348E-03  AT NODE 1002270 OF CONTACT PAIR 
   (TREAD_TOP_SURFACE,ROAD_MASTER_SURFACE)
   MAX. CONTACT FORCE ERROR 7.25132     AT NODE 1102184 OF CONTACT PAIR 
   (TREAD_TOP_SURFACE,ROAD_MASTER_SURFACE)
          PENETRATION ERROR TOO LARGE COMPARED TO DISPLACEMENT INCREMENT.

 AVERAGE FORCE                       12.7       TIME AVG. FORCE        12.7    
 LARGEST SCALED RESIDUAL FORCE       206.       AT NODE     902464   DOF  3
  CORRESPONDING RESIDUAL FORCE       206.    
 LARGEST INCREMENT OF DISP.         -3.90       AT NODE    1002728   DOF  1
 LARGEST CORRECTION TO DISP.        -3.90       AT NODE    1002728   DOF  1
          FORCE     EQUILIBRIUM NOT ACHIEVED WITHIN TOLERANCE.

 AVERAGE MOMENT                     4.779E+03   TIME AVG. MOMENT      4.779E+03
 ALL MOMENT    RESIDUALS ARE ZERO
 LARGEST INCREMENT OF ROTATION     -3.119E-31   AT NODE          2   DOF  5
 LARGEST CORRECTION TO ROTATION    -3.119E-31   AT NODE          2   DOF  5
          THE MOMENT    EQUILIBRIUM EQUATIONS HAVE CONVERGED

 COMPATIBILITY ERRORS:
    TYPE                NUMBER EXCEEDING TOLERANCE  MAXIMUM ERROR        IN ELEMENT
 VOLUMETRIC                      45122               -1.543E-03            6802143
 
	UNSYMMETRIC HYBRID DIRECT SPARSE SOLVER RUNNING ON
 	1 HOST x 1 MPI RANK PER HOST x 8 THREADS PER RANK
        NUMBER OF EQUATIONS:  291975
        NUMBER OF RHS:        1
        NUMBER OF FLOPS:      3.329e+12
        SOLVER ELAPSED TIME:  19s
 

 ***WARNING: THE SYSTEM MATRIX HAS 2 NEGATIVE EIGENVALUES.
             EXPLANATIONS ARE SUGGESTED AFTER THE FIRST OCCURRENCE OF THIS MESSAGE.

                    6 SEVERE DISCONTINUITIES OCCURRED DURING THIS ITERATION.
                    1 POINTS CHANGED FROM OPEN TO CLOSED
                    1 POINTS CHANGED FROM CLOSED TO OPEN
                    4 POINTS CHANGED FROM SLIPPING TO STICKING

               CONVERGENCE CHECKS FOR SEVERE DISCONTINUITY ITERATION     2

   MAX. PENETRATION ERROR 33.1468E-06  AT NODE 8002408 OF CONTACT PAIR 
   (UPPER_RIM_SLAVE_SURFACE,UPPER_RIM_MASTER_SURFACE)
   MAX. CONTACT FORCE ERROR -9.60977E-03 AT NODE 502464 OF CONTACT PAIR 
   (UPPER_RIM_SLAVE_SURFACE,UPPER_RIM_MASTER_SURFACE)
          THE CONTACT CONSTRAINT ERRORS ARE WITHIN THE TOLERANCES.

 AVERAGE FORCE                       12.8       TIME AVG. FORCE        12.8    
 LARGEST SCALED RESIDUAL FORCE      -14.3       AT NODE    6302286   DOF  2
  CORRESPONDING RESIDUAL FORCE      -14.3    
 LARGEST INCREMENT OF DISP.         -3.78       AT NODE    1002728   DOF  1
 LARGEST CORRECTION TO DISP.        0.210       AT NODE    1002720   DOF  1
          FORCE     EQUILIBRIUM NOT ACHIEVED WITHIN TOLERANCE.

 AVERAGE MOMENT                     4.761E+03   TIME AVG. MOMENT      4.761E+03
 ALL MOMENT    RESIDUALS ARE ZERO
 LARGEST INCREMENT OF ROTATION     -3.088E-31   AT NODE          2   DOF  5
 LARGEST CORRECTION TO ROTATION     3.117E-33   AT NODE          2   DOF  5
          THE MOMENT    EQUILIBRIUM EQUATIONS HAVE CONVERGED

 COMPATIBILITY ERRORS:
    TYPE                NUMBER EXCEEDING TOLERANCE  MAXIMUM ERROR        IN ELEMENT
 VOLUMETRIC                         41               -8.818E-05            1002262
 
	UNSYMMETRIC HYBRID DIRECT SPARSE SOLVER RUNNING ON
 	1 HOST x 1 MPI RANK PER HOST x 8 THREADS PER RANK
        NUMBER OF EQUATIONS:  291975
        NUMBER OF RHS:        1
        NUMBER OF FLOPS:      3.329e+12
        SOLVER ELAPSED TIME:  20s
 

 ***WARNING: THE SYSTEM MATRIX HAS 2 NEGATIVE EIGENVALUES.
             EXPLANATIONS ARE SUGGESTED AFTER THE FIRST OCCURRENCE OF THIS MESSAGE.

                    1 SEVERE DISCONTINUITIES OCCURRED DURING THIS ITERATION.
                    1 POINTS CHANGED FROM SLIPPING TO STICKING

               CONVERGENCE CHECKS FOR SEVERE DISCONTINUITY ITERATION     3

   MAX. PENETRATION ERROR -298.010E-09   AT NODE 802464 OF CONTACT PAIR 
   (UPPER_RIM_SLAVE_SURFACE,UPPER_RIM_MASTER_SURFACE)
   MAX. CONTACT FORCE ERROR -109.260E-06   AT NODE 802464 OF CONTACT PAIR 
   (UPPER_RIM_SLAVE_SURFACE,UPPER_RIM_MASTER_SURFACE)
          THE CONTACT CONSTRAINT ERRORS ARE WITHIN THE TOLERANCES.

 AVERAGE FORCE                       12.8       TIME AVG. FORCE        12.8    
 LARGEST SCALED RESIDUAL FORCE     -0.181       AT NODE    3102285   DOF  2
  CORRESPONDING RESIDUAL FORCE     -0.181    
 LARGEST INCREMENT OF DISP.         -3.77       AT NODE    1002728   DOF  1
 LARGEST CORRECTION TO DISP.       -2.148E-02   AT NODE    1102184   DOF  2
          FORCE     EQUILIBRIUM NOT ACHIEVED WITHIN TOLERANCE.

 AVERAGE MOMENT                     4.762E+03   TIME AVG. MOMENT      4.762E+03
 ALL MOMENT    RESIDUALS ARE ZERO
 LARGEST INCREMENT OF ROTATION     -3.087E-31   AT NODE          2   DOF  5
 LARGEST CORRECTION TO ROTATION     1.535E-34   AT NODE          1   DOF  4
          THE MOMENT    EQUILIBRIUM EQUATIONS HAVE CONVERGED

 COMPATIBILITY ERRORS:
    TYPE                NUMBER EXCEEDING TOLERANCE  MAXIMUM ERROR        IN ELEMENT
 VOLUMETRIC                          0               -1.909E-06            3002383
 
	UNSYMMETRIC HYBRID DIRECT SPARSE SOLVER RUNNING ON
 	1 HOST x 1 MPI RANK PER HOST x 8 THREADS PER RANK
        NUMBER OF EQUATIONS:  291975
        NUMBER OF RHS:        1
        NUMBER OF FLOPS:      3.329e+12
        SOLVER ELAPSED TIME:  17s
 

 ***WARNING: THE SYSTEM MATRIX HAS 2 NEGATIVE EIGENVALUES.
             EXPLANATIONS ARE SUGGESTED AFTER THE FIRST OCCURRENCE OF THIS MESSAGE.

               CONVERGENCE CHECKS FOR EQUILIBRIUM ITERATION     1

   MAX. PENETRATION ERROR -17.0387E-12  AT NODE 802464 OF CONTACT PAIR 
   (UPPER_RIM_SLAVE_SURFACE,UPPER_RIM_MASTER_SURFACE)
   MAX. CONTACT FORCE ERROR -6.24699E-09 AT NODE 802464 OF CONTACT PAIR 
   (UPPER_RIM_SLAVE_SURFACE,UPPER_RIM_MASTER_SURFACE)
          THE CONTACT CONSTRAINTS HAVE CONVERGED.

 AVERAGE FORCE                       12.8       TIME AVG. FORCE        12.8    
 LARGEST SCALED RESIDUAL FORCE     -2.219E-04   AT NODE    3102285   DOF  2
  CORRESPONDING RESIDUAL FORCE     -2.219E-04
 LARGEST INCREMENT OF DISP.         -3.77       AT NODE    1002728   DOF  1
 LARGEST CORRECTION TO DISP.       -1.302E-03   AT NODE    9802556   DOF  3
          THE FORCE     EQUILIBRIUM EQUATIONS HAVE CONVERGED

 AVERAGE MOMENT                     4.762E+03   TIME AVG. MOMENT      4.762E+03
 ALL MOMENT    RESIDUALS ARE ZERO
 LARGEST INCREMENT OF ROTATION     -3.087E-31   AT NODE          2   DOF  5
 LARGEST CORRECTION TO ROTATION     5.472E-36   AT NODE          1   DOF  4
          THE MOMENT    EQUILIBRIUM RESPONSE WAS LINEAR IN THIS INCREMENT

 COMPATIBILITY ERRORS:
    TYPE                NUMBER EXCEEDING TOLERANCE  MAXIMUM ERROR        IN ELEMENT
 VOLUMETRIC                          0               -7.864E-08            7202384

 ITERATION SUMMARY FOR THE INCREMENT:   4 TOTAL ITERATIONS, OF WHICH
   3 ARE SEVERE DISCONTINUITY ITERATIONS AND  1 ARE EQUILIBRIUM ITERATIONS.

 TIME INCREMENT COMPLETED  2.000E-02,  FRACTION OF STEP COMPLETED  2.000E-02
 STEP TIME COMPLETED       2.000E-02,  TOTAL TIME COMPLETED         6.02    


  INCREMENT     2 STARTS. ATTEMPT NUMBER  1, TIME INCREMENT  2.000E-02

                   25 SEVERE DISCONTINUITIES OCCURRED DURING INCREMENT ATTEMPT INITIALIZATION.
                   23 POINTS CHANGED FROM STICKING TO SLIPPING
                    2 POINTS CHANGED TO SLIPPING WITH NEGATIVE CPRESS
 
	UNSYMMETRIC HYBRID DIRECT SPARSE SOLVER RUNNING ON
 	1 HOST x 1 MPI RANK PER HOST x 8 THREADS PER RANK
        NUMBER OF EQUATIONS:  291975
        NUMBER OF RHS:        1
        NUMBER OF FLOPS:      3.329e+12
        SOLVER ELAPSED TIME:  20s
 

 ***WARNING: THE SYSTEM MATRIX HAS 2 NEGATIVE EIGENVALUES.
             EXPLANATIONS ARE SUGGESTED AFTER THE FIRST OCCURRENCE OF THIS MESSAGE.

                   21 SEVERE DISCONTINUITIES OCCURRED DURING THIS ITERATION.
                   10 POINTS CHANGED FROM OPEN TO CLOSED
                    2 POINTS CHANGED FROM CLOSED TO OPEN
                    2 POINTS CHANGED FROM SLIPPING TO STICKING
                    7 POINTS CHANGED FROM STICKING TO SLIPPING

               CONVERGENCE CHECKS FOR SEVERE DISCONTINUITY ITERATION     1

   MAX. PENETRATION ERROR 24.2286E-03  AT NODE 8902710 OF CONTACT PAIR 
   (TREAD_TOP_SURFACE,ROAD_MASTER_SURFACE)
   MAX. CONTACT FORCE ERROR 8.10333     AT NODE 8902710 OF CONTACT PAIR 
   (TREAD_TOP_SURFACE,ROAD_MASTER_SURFACE)
          PENETRATION ERROR TOO LARGE COMPARED TO DISPLACEMENT INCREMENT.

 AVERAGE FORCE                       12.8       TIME AVG. FORCE        12.8    
 LARGEST SCALED RESIDUAL FORCE       9.51       AT NODE    3502579   DOF  3
  CORRESPONDING RESIDUAL FORCE       9.51    
 LARGEST INCREMENT OF DISP.         -3.62       AT NODE     902721   DOF  1
 LARGEST CORRECTION TO DISP.        0.531       AT NODE     902701   DOF  1
          FORCE     EQUILIBRIUM NOT ACHIEVED WITHIN TOLERANCE.

 AVERAGE MOMENT                     4.777E+03   TIME AVG. MOMENT      4.770E+03
 ALL MOMENT    RESIDUALS ARE ZERO
 LARGEST INCREMENT OF ROTATION     -4.677E-31   AT NODE          2   DOF  5
 LARGEST CORRECTION TO ROTATION    -1.603E-31   AT NODE          1   DOF  5
          THE MOMENT    EQUILIBRIUM EQUATIONS HAVE CONVERGED

 COMPATIBILITY ERRORS:
    TYPE                NUMBER EXCEEDING TOLERANCE  MAXIMUM ERROR        IN ELEMENT
 VOLUMETRIC                        230               -4.574E-04            1002274
 
	UNSYMMETRIC HYBRID DIRECT SPARSE SOLVER RUNNING ON
 	1 HOST x 1 MPI RANK PER HOST x 8 THREADS PER RANK
        NUMBER OF EQUATIONS:  291975
        NUMBER OF RHS:        1
        NUMBER OF FLOPS:      3.329e+12
        SOLVER ELAPSED TIME:  20s
 

 ***WARNING: THE SYSTEM MATRIX HAS 6 NEGATIVE EIGENVALUES.
             EXPLANATIONS ARE SUGGESTED AFTER THE FIRST OCCURRENCE OF THIS MESSAGE.

                    6 SEVERE DISCONTINUITIES OCCURRED DURING THIS ITERATION.
                    1 POINTS CHANGED FROM OPEN TO CLOSED
                    2 POINTS CHANGED FROM CLOSED TO OPEN
                    2 POINTS CHANGED FROM SLIPPING TO STICKING
                    1 POINTS CHANGED FROM STICKING TO SLIPPING

               CONVERGENCE CHECKS FOR SEVERE DISCONTINUITY ITERATION     2

   MAX. PENETRATION ERROR 37.8169E-06  AT NODE 1302035 OF CONTACT PAIR 
   (LOWER_RIM_SLAVE_SURFACE,LOWER_RIM_MASTER_SURFACE)
   MAX. CONTACT FORCE ERROR -45.6537E-03  AT NODE 8902711 OF CONTACT PAIR 
   (TREAD_TOP_SURFACE,ROAD_MASTER_SURFACE)
          THE CONTACT CONSTRAINT ERRORS ARE WITHIN THE TOLERANCES.

 AVERAGE FORCE                       12.8       TIME AVG. FORCE        12.8    
 LARGEST SCALED RESIDUAL FORCE      -21.3       AT NODE    6702070   DOF  2
  CORRESPONDING RESIDUAL FORCE      -21.3    
 LARGEST INCREMENT OF DISP.         -3.62       AT NODE    1002742   DOF  1
 LARGEST CORRECTION TO DISP.        8.396E-02   AT NODE     902721   DOF  1
          FORCE     EQUILIBRIUM NOT ACHIEVED WITHIN TOLERANCE.

 AVERAGE MOMENT                     4.773E+03   TIME AVG. MOMENT      4.768E+03
 ALL MOMENT    RESIDUALS ARE ZERO
 LARGEST INCREMENT OF ROTATION     -4.685E-31   AT NODE          2   DOF  5
 LARGEST CORRECTION TO ROTATION    -1.287E-33   AT NODE          2   DOF  4
          THE MOMENT    EQUILIBRIUM EQUATIONS HAVE CONVERGED

 COMPATIBILITY ERRORS:
    TYPE                NUMBER EXCEEDING TOLERANCE  MAXIMUM ERROR        IN ELEMENT
 VOLUMETRIC                          6               -2.819E-05            8902255
 
	UNSYMMETRIC HYBRID DIRECT SPARSE SOLVER RUNNING ON
 	1 HOST x 1 MPI RANK PER HOST x 8 THREADS PER RANK
        NUMBER OF EQUATIONS:  291976
        NUMBER OF RHS:        1
        NUMBER OF FLOPS:      3.329e+12
        SOLVER ELAPSED TIME:  18s
 

 ***WARNING: THE SYSTEM MATRIX HAS 2 NEGATIVE EIGENVALUES.
             EXPLANATIONS ARE SUGGESTED AFTER THE FIRST OCCURRENCE OF THIS MESSAGE.

                    1 SEVERE DISCONTINUITIES OCCURRED DURING THIS ITERATION.
                    1 POINTS CHANGED FROM CLOSED TO OPEN

               CONVERGENCE CHECKS FOR SEVERE DISCONTINUITY ITERATION     3

   MAX. PENETRATION ERROR -117.546E-09   AT NODE 8902710 OF CONTACT PAIR 
   (TREAD_TOP_SURFACE,ROAD_MASTER_SURFACE)
   MAX. CONTACT FORCE ERROR -137.231E-06   AT NODE 1302035 OF CONTACT PAIR 
   (LOWER_RIM_SLAVE_SURFACE,LOWER_RIM_MASTER_SURFACE)
          THE CONTACT CONSTRAINT ERRORS ARE WITHIN THE TOLERANCES.

 AVERAGE FORCE                       12.8       TIME AVG. FORCE        12.8    
 LARGEST SCALED RESIDUAL FORCE      0.380       AT NODE    7502289   DOF  2
  CORRESPONDING RESIDUAL FORCE      0.380    
 LARGEST INCREMENT OF DISP.         -3.61       AT NODE    1002742   DOF  1
 LARGEST CORRECTION TO DISP.       -2.662E-02   AT NODE    8902710   DOF  2
          FORCE     EQUILIBRIUM NOT ACHIEVED WITHIN TOLERANCE.

 AVERAGE MOMENT                     4.776E+03   TIME AVG. MOMENT      4.769E+03
 ALL MOMENT    RESIDUALS ARE ZERO
 LARGEST INCREMENT OF ROTATION     -4.680E-31   AT NODE          2   DOF  5
 LARGEST CORRECTION TO ROTATION     4.787E-34   AT NODE          1   DOF  5
          THE MOMENT    EQUILIBRIUM EQUATIONS HAVE CONVERGED

 COMPATIBILITY ERRORS:
    TYPE                NUMBER EXCEEDING TOLERANCE  MAXIMUM ERROR        IN ELEMENT
 VOLUMETRIC                          0               -8.267E-06            6602385
 
	UNSYMMETRIC HYBRID DIRECT SPARSE SOLVER RUNNING ON
 	1 HOST x 1 MPI RANK PER HOST x 8 THREADS PER RANK
        NUMBER OF EQUATIONS:  291975
        NUMBER OF RHS:        1
        NUMBER OF FLOPS:      3.329e+12
        SOLVER ELAPSED TIME:  18s
 

 ***WARNING: THE SYSTEM MATRIX HAS 2 NEGATIVE EIGENVALUES.
             EXPLANATIONS ARE SUGGESTED AFTER THE FIRST OCCURRENCE OF THIS MESSAGE.

               CONVERGENCE CHECKS FOR EQUILIBRIUM ITERATION     1

   MAX. PENETRATION ERROR 41.5727E-12  AT NODE 8902710 OF CONTACT PAIR 
   (TREAD_TOP_SURFACE,ROAD_MASTER_SURFACE)
   MAX. CONTACT FORCE ERROR 13.8920E-09  AT NODE 8902710 OF CONTACT PAIR 
   (TREAD_TOP_SURFACE,ROAD_MASTER_SURFACE)
          THE CONTACT CONSTRAINTS HAVE CONVERGED.

 AVERAGE FORCE                       12.8       TIME AVG. FORCE        12.8    
 LARGEST SCALED RESIDUAL FORCE     -7.519E-05   AT NODE    7502292   DOF  2
  CORRESPONDING RESIDUAL FORCE     -7.519E-05
 LARGEST INCREMENT OF DISP.         -3.61       AT NODE    1002742   DOF  1
 LARGEST CORRECTION TO DISP.       -1.159E-03   AT NODE    7502300   DOF  2
          THE FORCE     EQUILIBRIUM EQUATIONS HAVE CONVERGED

 AVERAGE MOMENT                     4.776E+03   TIME AVG. MOMENT      4.769E+03
 ALL MOMENT    RESIDUALS ARE ZERO
 LARGEST INCREMENT OF ROTATION     -4.680E-31   AT NODE          2   DOF  5
 LARGEST CORRECTION TO ROTATION     1.790E-35   AT NODE          1   DOF  5
          THE MOMENT    EQUILIBRIUM RESPONSE WAS LINEAR IN THIS INCREMENT

 COMPATIBILITY ERRORS:
    TYPE                NUMBER EXCEEDING TOLERANCE  MAXIMUM ERROR        IN ELEMENT
 VOLUMETRIC                          0                1.143E-08            7402384

 ITERATION SUMMARY FOR THE INCREMENT:   4 TOTAL ITERATIONS, OF WHICH
   3 ARE SEVERE DISCONTINUITY ITERATIONS AND  1 ARE EQUILIBRIUM ITERATIONS.

 TIME INCREMENT COMPLETED  2.000E-02,  FRACTION OF STEP COMPLETED  4.000E-02
 STEP TIME COMPLETED       4.000E-02,  TOTAL TIME COMPLETED         6.04    


  INCREMENT     3 STARTS. ATTEMPT NUMBER  1, TIME INCREMENT  2.000E-02

                   23 SEVERE DISCONTINUITIES OCCURRED DURING INCREMENT ATTEMPT INITIALIZATION.
                   19 POINTS CHANGED FROM STICKING TO SLIPPING
                    4 POINTS CHANGED TO SLIPPING WITH NEGATIVE CPRESS
 
	UNSYMMETRIC HYBRID DIRECT SPARSE SOLVER RUNNING ON
 	1 HOST x 1 MPI RANK PER HOST x 8 THREADS PER RANK
        NUMBER OF EQUATIONS:  291975
        NUMBER OF RHS:        1
        NUMBER OF FLOPS:      3.329e+12
        SOLVER ELAPSED TIME:  18s

                   27 SEVERE DISCONTINUITIES OCCURRED DURING THIS ITERATION.
                   10 POINTS CHANGED FROM OPEN TO CLOSED
                    5 POINTS CHANGED FROM CLOSED TO OPEN
                    1 POINTS CHANGED FROM SLIPPING TO STICKING
                   11 POINTS CHANGED FROM STICKING TO SLIPPING

               CONVERGENCE CHECKS FOR SEVERE DISCONTINUITY ITERATION     1

   MAX. PENETRATION ERROR 39.3825E-03  AT NODE 1202742 OF CONTACT PAIR 
   (TREAD_TOP_SURFACE,ROAD_MASTER_SURFACE)
   MAX. CONTACT FORCE ERROR 14.6076      AT NODE 1202742 OF CONTACT PAIR 
   (TREAD_TOP_SURFACE,ROAD_MASTER_SURFACE)
          PENETRATION ERROR TOO LARGE COMPARED TO DISPLACEMENT INCREMENT.

 AVERAGE FORCE                       12.8       TIME AVG. FORCE        12.8    
 LARGEST SCALED RESIDUAL FORCE      -14.6       AT NODE    3802588   DOF  3
  CORRESPONDING RESIDUAL FORCE      -14.6    
 LARGEST INCREMENT OF DISP.         -3.45       AT NODE     902729   DOF  1
 LARGEST CORRECTION TO DISP.        0.463       AT NODE    1002742   DOF  1
          FORCE     EQUILIBRIUM NOT ACHIEVED WITHIN TOLERANCE.

 AVERAGE MOMENT                     4.793E+03   TIME AVG. MOMENT      4.777E+03
 ALL MOMENT    RESIDUALS ARE ZERO
 LARGEST INCREMENT OF ROTATION     -6.186E-31   AT NODE          2   DOF  5
 LARGEST CORRECTION TO ROTATION    -1.520E-31   AT NODE          1   DOF  5
          THE MOMENT    EQUILIBRIUM EQUATIONS HAVE CONVERGED

 COMPATIBILITY ERRORS:
    TYPE                NUMBER EXCEEDING TOLERANCE  MAXIMUM ERROR        IN ELEMENT
 VOLUMETRIC                        196               -3.931E-04            1002286
 
	UNSYMMETRIC HYBRID DIRECT SPARSE SOLVER RUNNING ON
 	1 HOST x 1 MPI RANK PER HOST x 8 THREADS PER RANK
        NUMBER OF EQUATIONS:  291976
        NUMBER OF RHS:        1
        NUMBER OF FLOPS:      3.544e+12
        SOLVER ELAPSED TIME:  20s
 

 ***WARNING: THE SYSTEM MATRIX HAS 2 NEGATIVE EIGENVALUES.
             EXPLANATIONS ARE SUGGESTED AFTER THE FIRST OCCURRENCE OF THIS MESSAGE.

                    6 SEVERE DISCONTINUITIES OCCURRED DURING THIS ITERATION.
                    1 POINTS CHANGED FROM OPEN TO CLOSED
                    2 POINTS CHANGED FROM CLOSED TO OPEN
                    3 POINTS CHANGED FROM SLIPPING TO STICKING

               CONVERGENCE CHECKS FOR SEVERE DISCONTINUITY ITERATION     2

   MAX. PENETRATION ERROR 103.055E-06   AT NODE 1302035 OF CONTACT PAIR 
   (LOWER_RIM_SLAVE_SURFACE,LOWER_RIM_MASTER_SURFACE)
   MAX. CONTACT FORCE ERROR -488.349E-03   AT NODE 1202741 OF CONTACT PAIR 
   (TREAD_TOP_SURFACE,ROAD_MASTER_SURFACE)
          THE CONTACT CONSTRAINT ERRORS ARE WITHIN THE TOLERANCES.

 AVERAGE FORCE                       12.8       TIME AVG. FORCE        12.8    
 LARGEST SCALED RESIDUAL FORCE      -48.4       AT NODE    6502297   DOF  2
  CORRESPONDING RESIDUAL FORCE      -48.4    
 LARGEST INCREMENT OF DISP.         -3.39       AT NODE     802721   DOF  1
 LARGEST CORRECTION TO DISP.       -0.106       AT NODE    1202742   DOF  1
          FORCE     EQUILIBRIUM NOT ACHIEVED WITHIN TOLERANCE.

 AVERAGE MOMENT                     4.794E+03   TIME AVG. MOMENT      4.778E+03
 ALL MOMENT    RESIDUALS ARE ZERO
 LARGEST INCREMENT OF ROTATION     -6.184E-31   AT NODE          2   DOF  5
 LARGEST CORRECTION TO ROTATION     2.812E-34   AT NODE          1   DOF  5
          THE MOMENT    EQUILIBRIUM EQUATIONS HAVE CONVERGED

 COMPATIBILITY ERRORS:
    TYPE                NUMBER EXCEEDING TOLERANCE  MAXIMUM ERROR        IN ELEMENT
 VOLUMETRIC                          5                5.983E-05            1102286
 
	UNSYMMETRIC HYBRID DIRECT SPARSE SOLVER RUNNING ON
 	1 HOST x 1 MPI RANK PER HOST x 8 THREADS PER RANK
        NUMBER OF EQUATIONS:  291977
        NUMBER OF RHS:        1
        NUMBER OF FLOPS:      3.544e+12
        SOLVER ELAPSED TIME:  20s

                    1 SEVERE DISCONTINUITIES OCCURRED DURING THIS ITERATION.
                    1 POINTS CHANGED FROM SLIPPING TO STICKING

               CONVERGENCE CHECKS FOR SEVERE DISCONTINUITY ITERATION     3

   MAX. PENETRATION ERROR 1.10216E-06 AT NODE 1102741 OF CONTACT PAIR 
   (TREAD_TOP_SURFACE,ROAD_MASTER_SURFACE)
   MAX. CONTACT FORCE ERROR 421.703E-06   AT NODE 1102741 OF CONTACT PAIR 
   (TREAD_TOP_SURFACE,ROAD_MASTER_SURFACE)
          THE CONTACT CONSTRAINT ERRORS ARE WITHIN THE TOLERANCES.

 AVERAGE FORCE                       12.8       TIME AVG. FORCE        12.8    
 LARGEST SCALED RESIDUAL FORCE     -0.507       AT NODE    7702180   DOF  2
  CORRESPONDING RESIDUAL FORCE     -0.507    
 LARGEST INCREMENT OF DISP.         -3.39       AT NODE     802721   DOF  1
 LARGEST CORRECTION TO DISP.       -2.371E-02   AT NODE    1202741   DOF  1
          FORCE     EQUILIBRIUM NOT ACHIEVED WITHIN TOLERANCE.

 AVERAGE MOMENT                     4.796E+03   TIME AVG. MOMENT      4.778E+03
 ALL MOMENT    RESIDUALS ARE ZERO
 LARGEST INCREMENT OF ROTATION     -6.183E-31   AT NODE          2   DOF  5
 LARGEST CORRECTION TO ROTATION    -8.210E-35   AT NODE          1   DOF  4
          THE MOMENT    EQUILIBRIUM EQUATIONS HAVE CONVERGED

 COMPATIBILITY ERRORS:
    TYPE                NUMBER EXCEEDING TOLERANCE  MAXIMUM ERROR        IN ELEMENT
 VOLUMETRIC                          1               -1.046E-05            6402449
 
	UNSYMMETRIC HYBRID DIRECT SPARSE SOLVER RUNNING ON
 	1 HOST x 1 MPI RANK PER HOST x 8 THREADS PER RANK
        NUMBER OF EQUATIONS:  291977
        NUMBER OF RHS:        1
        NUMBER OF FLOPS:      3.544e+12
        SOLVER ELAPSED TIME:  18s

               CONVERGENCE CHECKS FOR EQUILIBRIUM ITERATION     1

   MAX. PENETRATION ERROR -11.4700E-12  AT NODE 1302035 OF CONTACT PAIR 
   (LOWER_RIM_SLAVE_SURFACE,LOWER_RIM_MASTER_SURFACE)
   MAX. CONTACT FORCE ERROR -1.92854E-09 AT NODE 1302035 OF CONTACT PAIR 
   (LOWER_RIM_SLAVE_SURFACE,LOWER_RIM_MASTER_SURFACE)
          THE CONTACT CONSTRAINTS HAVE CONVERGED.

 AVERAGE FORCE                       12.8       TIME AVG. FORCE        12.8    
 LARGEST SCALED RESIDUAL FORCE     -3.276E-04   AT NODE    7602071   DOF  1
  CORRESPONDING RESIDUAL FORCE     -3.276E-04
 LARGEST INCREMENT OF DISP.         -3.39       AT NODE     802721   DOF  1
 LARGEST CORRECTION TO DISP.       -1.809E-03   AT NODE    7502070   DOF  2
          THE FORCE     EQUILIBRIUM EQUATIONS HAVE CONVERGED

 AVERAGE MOMENT                     4.796E+03   TIME AVG. MOMENT      4.778E+03
 ALL MOMENT    RESIDUALS ARE ZERO
 LARGEST INCREMENT OF ROTATION     -6.183E-31   AT NODE          2   DOF  5
 LARGEST CORRECTION TO ROTATION     2.957E-36   AT NODE          2   DOF  5
          THE MOMENT    EQUILIBRIUM RESPONSE WAS LINEAR IN THIS INCREMENT

 COMPATIBILITY ERRORS:
    TYPE                NUMBER EXCEEDING TOLERANCE  MAXIMUM ERROR        IN ELEMENT
 VOLUMETRIC                          0               -2.150E-07            7402385

 ITERATION SUMMARY FOR THE INCREMENT:   4 TOTAL ITERATIONS, OF WHICH
   3 ARE SEVERE DISCONTINUITY ITERATIONS AND  1 ARE EQUILIBRIUM ITERATIONS.

 TIME INCREMENT COMPLETED  2.000E-02,  FRACTION OF STEP COMPLETED  6.000E-02
 STEP TIME COMPLETED       6.000E-02,  TOTAL TIME COMPLETED         6.06    


  INCREMENT     4 STARTS. ATTEMPT NUMBER  1, TIME INCREMENT  2.000E-02

                   14 SEVERE DISCONTINUITIES OCCURRED DURING INCREMENT ATTEMPT INITIALIZATION.
                   12 POINTS CHANGED FROM STICKING TO SLIPPING
                    2 POINTS CHANGED TO SLIPPING WITH NEGATIVE CPRESS
 
	UNSYMMETRIC HYBRID DIRECT SPARSE SOLVER RUNNING ON
 	1 HOST x 1 MPI RANK PER HOST x 8 THREADS PER RANK
        NUMBER OF EQUATIONS:  291977
        NUMBER OF RHS:        1
        NUMBER OF FLOPS:      3.544e+12
        SOLVER ELAPSED TIME:  20s

                   17 SEVERE DISCONTINUITIES OCCURRED DURING THIS ITERATION.
                    5 POINTS CHANGED FROM OPEN TO CLOSED
                    3 POINTS CHANGED FROM CLOSED TO OPEN
                    1 POINTS CHANGED FROM SLIPPING TO STICKING
                    8 POINTS CHANGED FROM STICKING TO SLIPPING

               CONVERGENCE CHECKS FOR SEVERE DISCONTINUITY ITERATION     1

   MAX. PENETRATION ERROR 14.6381E-03  AT NODE 8902709 OF CONTACT PAIR 
   (TREAD_TOP_SURFACE,ROAD_MASTER_SURFACE)
   MAX. CONTACT FORCE ERROR 4.96913     AT NODE 8902709 OF CONTACT PAIR 
   (TREAD_TOP_SURFACE,ROAD_MASTER_SURFACE)
          THE CONTACT CONSTRAINT ERRORS ARE WITHIN THE TOLERANCES.

 AVERAGE FORCE                       12.8       TIME AVG. FORCE        12.8    
 LARGEST SCALED RESIDUAL FORCE       20.9       AT NODE     602097   DOF  3
  CORRESPONDING RESIDUAL FORCE       20.9    
 LARGEST INCREMENT OF DISP.         -3.24       AT NODE     902742   DOF  1
 LARGEST CORRECTION TO DISP.        0.480       AT NODE     802701   DOF  1
          FORCE     EQUILIBRIUM NOT ACHIEVED WITHIN TOLERANCE.

 AVERAGE MOMENT                     4.821E+03   TIME AVG. MOMENT      4.789E+03
 ALL MOMENT    RESIDUALS ARE ZERO
 LARGEST INCREMENT OF ROTATION     -7.598E-31   AT NODE          2   DOF  5
 LARGEST CORRECTION TO ROTATION    -1.431E-31   AT NODE          1   DOF  5
          THE MOMENT    EQUILIBRIUM EQUATIONS HAVE CONVERGED

 COMPATIBILITY ERRORS:
    TYPE                NUMBER EXCEEDING TOLERANCE  MAXIMUM ERROR        IN ELEMENT
 VOLUMETRIC                        209               -4.636E-04             802255
 
	UNSYMMETRIC HYBRID DIRECT SPARSE SOLVER RUNNING ON
 	1 HOST x 1 MPI RANK PER HOST x 8 THREADS PER RANK
        NUMBER OF EQUATIONS:  291976
        NUMBER OF RHS:        1
        NUMBER OF FLOPS:      3.544e+12
        SOLVER ELAPSED TIME:  21s
 

 ***WARNING: THE SYSTEM MATRIX HAS 2 NEGATIVE EIGENVALUES.
             EXPLANATIONS ARE SUGGESTED AFTER THE FIRST OCCURRENCE OF THIS MESSAGE.

                    1 SEVERE DISCONTINUITIES OCCURRED DURING THIS ITERATION.
                    1 POINTS CHANGED FROM CLOSED TO OPEN

               CONVERGENCE CHECKS FOR SEVERE DISCONTINUITY ITERATION     2

   MAX. PENETRATION ERROR 4.07110E-06 AT NODE 8902709 OF CONTACT PAIR 
   (TREAD_TOP_SURFACE,ROAD_MASTER_SURFACE)
   MAX. CONTACT FORCE ERROR -101.403E-03   AT NODE 9602736 OF CONTACT PAIR 
   (TREAD_TOP_SURFACE,ROAD_MASTER_SURFACE)
          THE CONTACT CONSTRAINT ERRORS ARE WITHIN THE TOLERANCES.

 AVERAGE FORCE                       12.8       TIME AVG. FORCE        12.8    
 LARGEST SCALED RESIDUAL FORCE      -19.9       AT NODE    6902061   DOF  2
  CORRESPONDING RESIDUAL FORCE      -19.9    
 LARGEST INCREMENT OF DISP.         -3.23       AT NODE     902742   DOF  1
 LARGEST CORRECTION TO DISP.       -7.825E-02   AT NODE    9502736   DOF  3
          FORCE     EQUILIBRIUM NOT ACHIEVED WITHIN TOLERANCE.

 AVERAGE MOMENT                     4.820E+03   TIME AVG. MOMENT      4.788E+03
 ALL MOMENT    RESIDUALS ARE ZERO
 LARGEST INCREMENT OF ROTATION     -7.600E-31   AT NODE          2   DOF  5
 LARGEST CORRECTION TO ROTATION    -4.880E-34   AT NODE          2   DOF  4
          THE MOMENT    EQUILIBRIUM EQUATIONS HAVE CONVERGED

 COMPATIBILITY ERRORS:
    TYPE                NUMBER EXCEEDING TOLERANCE  MAXIMUM ERROR        IN ELEMENT
 VOLUMETRIC                          3               -1.440E-05            8902258
 
	UNSYMMETRIC HYBRID DIRECT SPARSE SOLVER RUNNING ON
 	1 HOST x 1 MPI RANK PER HOST x 8 THREADS PER RANK
        NUMBER OF EQUATIONS:  291976
        NUMBER OF RHS:        1
        NUMBER OF FLOPS:      3.544e+12
        SOLVER ELAPSED TIME:  18s
 

 ***WARNING: THE SYSTEM MATRIX HAS 2 NEGATIVE EIGENVALUES.
             EXPLANATIONS ARE SUGGESTED AFTER THE FIRST OCCURRENCE OF THIS MESSAGE.

               CONVERGENCE CHECKS FOR EQUILIBRIUM ITERATION     1

   MAX. PENETRATION ERROR -28.8524E-09  AT NODE 9702736 OF CONTACT PAIR 
   (TREAD_TOP_SURFACE,ROAD_MASTER_SURFACE)
   MAX. CONTACT FORCE ERROR -7.50721E-06 AT NODE 9702736 OF CONTACT PAIR 
   (TREAD_TOP_SURFACE,ROAD_MASTER_SURFACE)
          THE CONTACT CONSTRAINTS HAVE CONVERGED.

 AVERAGE FORCE                       12.8       TIME AVG. FORCE        12.8    
 LARGEST SCALED RESIDUAL FORCE     -0.955       AT NODE    7102297   DOF  2
  CORRESPONDING RESIDUAL FORCE     -0.955    
 LARGEST INCREMENT OF DISP.         -3.23       AT NODE     902742   DOF  1
 LARGEST CORRECTION TO DISP.       -1.454E-02   AT NODE    6902061   DOF  2
          FORCE     EQUILIBRIUM NOT ACHIEVED WITHIN TOLERANCE.

 AVERAGE MOMENT                     4.820E+03   TIME AVG. MOMENT      4.788E+03
 ALL MOMENT    RESIDUALS ARE ZERO
 LARGEST INCREMENT OF ROTATION     -7.599E-31   AT NODE          2   DOF  5
 LARGEST CORRECTION TO ROTATION     7.994E-35   AT NODE          1   DOF  5
          THE MOMENT    EQUILIBRIUM RESPONSE WAS LINEAR IN THIS INCREMENT

 COMPATIBILITY ERRORS:
    TYPE                NUMBER EXCEEDING TOLERANCE  MAXIMUM ERROR        IN ELEMENT
 VOLUMETRIC                          0               -6.048E-06            6802449
 
	UNSYMMETRIC HYBRID DIRECT SPARSE SOLVER RUNNING ON
 	1 HOST x 1 MPI RANK PER HOST x 8 THREADS PER RANK
        NUMBER OF EQUATIONS:  291976
        NUMBER OF RHS:        1
        NUMBER OF FLOPS:      3.544e+12
        SOLVER ELAPSED TIME:  18s
 

 ***WARNING: THE SYSTEM MATRIX HAS 2 NEGATIVE EIGENVALUES.
             EXPLANATIONS ARE SUGGESTED AFTER THE FIRST OCCURRENCE OF THIS MESSAGE.

               CONVERGENCE CHECKS FOR EQUILIBRIUM ITERATION     2

   MAX. PENETRATION ERROR -2.04325E-12 AT NODE 8902709 OF CONTACT PAIR 
   (TREAD_TOP_SURFACE,ROAD_MASTER_SURFACE)
   MAX. CONTACT FORCE ERROR -692.634E-12   AT NODE 8902709 OF CONTACT PAIR 
   (TREAD_TOP_SURFACE,ROAD_MASTER_SURFACE)
          THE CONTACT CONSTRAINTS HAVE CONVERGED.

 AVERAGE FORCE                       12.8       TIME AVG. FORCE        12.8    
 LARGEST SCALED RESIDUAL FORCE      4.732E-04   AT NODE    7002297   DOF  2
  CORRESPONDING RESIDUAL FORCE      4.732E-04
 LARGEST INCREMENT OF DISP.         -3.23       AT NODE     902742   DOF  1
 LARGEST CORRECTION TO DISP.        2.068E-03   AT NODE    7102674   DOF  2
          THE FORCE     EQUILIBRIUM EQUATIONS HAVE CONVERGED

 AVERAGE MOMENT                     4.820E+03   TIME AVG. MOMENT      4.788E+03
 ALL MOMENT    RESIDUALS ARE ZERO
 LARGEST INCREMENT OF ROTATION     -7.599E-31   AT NODE          2   DOF  5
 LARGEST CORRECTION TO ROTATION    -7.485E-37   AT NODE          2   DOF  5
          THE MOMENT    EQUILIBRIUM EQUATIONS HAVE CONVERGED

 COMPATIBILITY ERRORS:
    TYPE                NUMBER EXCEEDING TOLERANCE  MAXIMUM ERROR        IN ELEMENT
 VOLUMETRIC                          0               -3.492E-07            7002449

 ITERATION SUMMARY FOR THE INCREMENT:   4 TOTAL ITERATIONS, OF WHICH
   2 ARE SEVERE DISCONTINUITY ITERATIONS AND  2 ARE EQUILIBRIUM ITERATIONS.

 TIME INCREMENT COMPLETED  2.000E-02,  FRACTION OF STEP COMPLETED  8.000E-02
 STEP TIME COMPLETED       8.000E-02,  TOTAL TIME COMPLETED         6.08    


  INCREMENT     5 STARTS. ATTEMPT NUMBER  1, TIME INCREMENT  2.000E-02

                   28 SEVERE DISCONTINUITIES OCCURRED DURING INCREMENT ATTEMPT INITIALIZATION.
                   25 POINTS CHANGED FROM STICKING TO SLIPPING
                    3 POINTS CHANGED TO SLIPPING WITH NEGATIVE CPRESS
 
	UNSYMMETRIC HYBRID DIRECT SPARSE SOLVER RUNNING ON
 	1 HOST x 1 MPI RANK PER HOST x 8 THREADS PER RANK
        NUMBER OF EQUATIONS:  291976
        NUMBER OF RHS:        1
        NUMBER OF FLOPS:      3.544e+12
        SOLVER ELAPSED TIME:  21s
 

 ***WARNING: THE SYSTEM MATRIX HAS 8 NEGATIVE EIGENVALUES.
             EXPLANATIONS ARE SUGGESTED AFTER THE FIRST OCCURRENCE OF THIS MESSAGE.

                   25 SEVERE DISCONTINUITIES OCCURRED DURING THIS ITERATION.
                    8 POINTS CHANGED FROM OPEN TO CLOSED
                    3 POINTS CHANGED FROM CLOSED TO OPEN
                    2 POINTS CHANGED FROM SLIPPING TO STICKING
                   12 POINTS CHANGED FROM STICKING TO SLIPPING

               CONVERGENCE CHECKS FOR SEVERE DISCONTINUITY ITERATION     1

   MAX. PENETRATION ERROR 14.7068E-03  AT NODE 1102308 OF CONTACT PAIR 
   (TREAD_TOP_SURFACE,ROAD_MASTER_SURFACE)
   MAX. CONTACT FORCE ERROR 4.41969     AT NODE 1102308 OF CONTACT PAIR 
   (TREAD_TOP_SURFACE,ROAD_MASTER_SURFACE)
          THE CONTACT CONSTRAINT ERRORS ARE WITHIN THE TOLERANCES.

 AVERAGE FORCE                       12.8       TIME AVG. FORCE        12.8    
 LARGEST SCALED RESIDUAL FORCE       11.3       AT NODE    6402599   DOF  3
  CORRESPONDING RESIDUAL FORCE       11.3    
 LARGEST INCREMENT OF DISP.         -3.01       AT NODE     702721   DOF  1
 LARGEST CORRECTION TO DISP.        0.509       AT NODE     802720   DOF  1
          FORCE     EQUILIBRIUM NOT ACHIEVED WITHIN TOLERANCE.

 AVERAGE MOMENT                     4.844E+03   TIME AVG. MOMENT      4.799E+03
 ALL MOMENT    RESIDUALS ARE ZERO
 LARGEST INCREMENT OF ROTATION     -8.915E-31   AT NODE          2   DOF  5
 LARGEST CORRECTION TO ROTATION    -1.333E-31   AT NODE          1   DOF  5
          THE MOMENT    EQUILIBRIUM EQUATIONS HAVE CONVERGED

 COMPATIBILITY ERRORS:
    TYPE                NUMBER EXCEEDING TOLERANCE  MAXIMUM ERROR        IN ELEMENT
 VOLUMETRIC                        204               -5.136E-04             802264
 
	UNSYMMETRIC HYBRID DIRECT SPARSE SOLVER RUNNING ON
 	1 HOST x 1 MPI RANK PER HOST x 8 THREADS PER RANK
        NUMBER OF EQUATIONS:  291977
        NUMBER OF RHS:        1
        NUMBER OF FLOPS:      3.120e+12
        SOLVER ELAPSED TIME:  18s
 

 ***WARNING: THE SYSTEM MATRIX HAS 8 NEGATIVE EIGENVALUES.
             EXPLANATIONS ARE SUGGESTED AFTER THE FIRST OCCURRENCE OF THIS MESSAGE.

                    4 SEVERE DISCONTINUITIES OCCURRED DURING THIS ITERATION.
                    4 POINTS CHANGED FROM SLIPPING TO STICKING

               CONVERGENCE CHECKS FOR SEVERE DISCONTINUITY ITERATION     2

   MAX. PENETRATION ERROR -2.48683E-06 AT NODE 1102308 OF CONTACT PAIR 
   (TREAD_TOP_SURFACE,ROAD_MASTER_SURFACE)
   MAX. CONTACT FORCE ERROR -747.033E-06   AT NODE 1102308 OF CONTACT PAIR 
   (TREAD_TOP_SURFACE,ROAD_MASTER_SURFACE)
          THE CONTACT CONSTRAINT ERRORS ARE WITHIN THE TOLERANCES.

 AVERAGE FORCE                       12.8       TIME AVG. FORCE        12.8    
 LARGEST SCALED RESIDUAL FORCE       39.5       AT NODE    6702613   DOF  2
  CORRESPONDING RESIDUAL FORCE       39.5    
 LARGEST INCREMENT OF DISP.         -3.00       AT NODE     702721   DOF  1
 LARGEST CORRECTION TO DISP.        8.259E-02   AT NODE     502227   DOF  1
          FORCE     EQUILIBRIUM NOT ACHIEVED WITHIN TOLERANCE.

 AVERAGE MOMENT                     4.843E+03   TIME AVG. MOMENT      4.799E+03
 ALL MOMENT    RESIDUALS ARE ZERO
 LARGEST INCREMENT OF ROTATION     -8.909E-31   AT NODE          2   DOF  5
 LARGEST CORRECTION TO ROTATION     6.184E-34   AT NODE          1   DOF  5
          THE MOMENT    EQUILIBRIUM EQUATIONS HAVE CONVERGED

 COMPATIBILITY ERRORS:
    TYPE                NUMBER EXCEEDING TOLERANCE  MAXIMUM ERROR        IN ELEMENT
 VOLUMETRIC                          1               -1.128E-05             502227
 
	UNSYMMETRIC HYBRID DIRECT SPARSE SOLVER RUNNING ON
 	1 HOST x 1 MPI RANK PER HOST x 8 THREADS PER RANK
        NUMBER OF EQUATIONS:  291977
        NUMBER OF RHS:        1
        NUMBER OF FLOPS:      3.120e+12
        SOLVER ELAPSED TIME:  18s
 

 ***WARNING: THE SYSTEM MATRIX HAS 8 NEGATIVE EIGENVALUES.
             EXPLANATIONS ARE SUGGESTED AFTER THE FIRST OCCURRENCE OF THIS MESSAGE.

               CONVERGENCE CHECKS FOR EQUILIBRIUM ITERATION     1

   MAX. PENETRATION ERROR -5.56839E-09 AT NODE 602396 OF CONTACT PAIR 
   (TREAD_TOP_SURFACE,ROAD_MASTER_SURFACE)
   MAX. CONTACT FORCE ERROR -1.14180E-06 AT NODE 602721 OF CONTACT PAIR 
   (TREAD_TOP_SURFACE,ROAD_MASTER_SURFACE)
          THE CONTACT CONSTRAINTS HAVE CONVERGED.

 AVERAGE FORCE                       12.8       TIME AVG. FORCE        12.8    
 LARGEST SCALED RESIDUAL FORCE       1.39       AT NODE    6702671   DOF  2
  CORRESPONDING RESIDUAL FORCE       1.39    
 LARGEST INCREMENT OF DISP.         -2.99       AT NODE     702721   DOF  1
 LARGEST CORRECTION TO DISP.        1.202E-02   AT NODE     702396   DOF  1
          FORCE     EQUILIBRIUM NOT ACHIEVED WITHIN TOLERANCE.

 AVERAGE MOMENT                     4.842E+03   TIME AVG. MOMENT      4.799E+03
 ALL MOMENT    RESIDUALS ARE ZERO
 LARGEST INCREMENT OF ROTATION     -8.909E-31   AT NODE          2   DOF  5
 LARGEST CORRECTION TO ROTATION     6.532E-35   AT NODE          1   DOF  5
          THE MOMENT    EQUILIBRIUM RESPONSE WAS LINEAR IN THIS INCREMENT

 COMPATIBILITY ERRORS:
    TYPE                NUMBER EXCEEDING TOLERANCE  MAXIMUM ERROR        IN ELEMENT
 VOLUMETRIC                          0                8.216E-06            6702548
 
	UNSYMMETRIC HYBRID DIRECT SPARSE SOLVER RUNNING ON
 	1 HOST x 1 MPI RANK PER HOST x 8 THREADS PER RANK
        NUMBER OF EQUATIONS:  291977
        NUMBER OF RHS:        1
        NUMBER OF FLOPS:      3.120e+12
        SOLVER ELAPSED TIME:  17s
 

 ***WARNING: THE SYSTEM MATRIX HAS 8 NEGATIVE EIGENVALUES.
             EXPLANATIONS ARE SUGGESTED AFTER THE FIRST OCCURRENCE OF THIS MESSAGE.

               CONVERGENCE CHECKS FOR EQUILIBRIUM ITERATION     2

   MAX. PENETRATION ERROR -2.97049E-12 AT NODE 8902721 OF CONTACT PAIR 
   (TREAD_TOP_SURFACE,ROAD_MASTER_SURFACE)
   MAX. CONTACT FORCE ERROR -1.14793E-09 AT NODE 8902721 OF CONTACT PAIR 
   (TREAD_TOP_SURFACE,ROAD_MASTER_SURFACE)
          THE CONTACT CONSTRAINTS HAVE CONVERGED.

 AVERAGE FORCE                       12.8       TIME AVG. FORCE        12.8    
 LARGEST SCALED RESIDUAL FORCE       13.9       AT NODE    6702613   DOF  2
  CORRESPONDING RESIDUAL FORCE       13.9    
 LARGEST INCREMENT OF DISP.         -2.99       AT NODE     702721   DOF  1
 LARGEST CORRECTION TO DISP.       -5.363E-03   AT NODE    6802613   DOF  2
          FORCE     EQUILIBRIUM NOT ACHIEVED WITHIN TOLERANCE.

 AVERAGE MOMENT                     4.842E+03   TIME AVG. MOMENT      4.799E+03
 ALL MOMENT    RESIDUALS ARE ZERO
 LARGEST INCREMENT OF ROTATION     -8.909E-31   AT NODE          2   DOF  5
 LARGEST CORRECTION TO ROTATION     4.229E-36   AT NODE          1   DOF  4
          THE MOMENT    EQUILIBRIUM EQUATIONS HAVE CONVERGED

 COMPATIBILITY ERRORS:
    TYPE                NUMBER EXCEEDING TOLERANCE  MAXIMUM ERROR        IN ELEMENT
 VOLUMETRIC                          0                2.422E-06            6702548
 
	UNSYMMETRIC HYBRID DIRECT SPARSE SOLVER RUNNING ON
 	1 HOST x 1 MPI RANK PER HOST x 8 THREADS PER RANK
        NUMBER OF EQUATIONS:  291977
        NUMBER OF RHS:        1
        NUMBER OF FLOPS:      3.120e+12
        SOLVER ELAPSED TIME:  17s
 

 ***WARNING: THE SYSTEM MATRIX HAS 8 NEGATIVE EIGENVALUES.
             EXPLANATIONS ARE SUGGESTED AFTER THE FIRST OCCURRENCE OF THIS MESSAGE.

               CONVERGENCE CHECKS FOR EQUILIBRIUM ITERATION     3

   MAX. PENETRATION ERROR -2.14077E-12 AT NODE 8902721 OF CONTACT PAIR 
   (TREAD_TOP_SURFACE,ROAD_MASTER_SURFACE)
   MAX. CONTACT FORCE ERROR -827.289E-12   AT NODE 8902721 OF CONTACT PAIR 
   (TREAD_TOP_SURFACE,ROAD_MASTER_SURFACE)
          THE CONTACT CONSTRAINTS HAVE CONVERGED.

 AVERAGE FORCE                       12.8       TIME AVG. FORCE        12.8    
 LARGEST SCALED RESIDUAL FORCE      2.983E-02   AT NODE    6702674   DOF  2
  CORRESPONDING RESIDUAL FORCE      2.983E-02
 LARGEST INCREMENT OF DISP.         -2.99       AT NODE     702721   DOF  1
 LARGEST CORRECTION TO DISP.        4.747E-03   AT NODE    7002613   DOF  2
          THE FORCE     EQUILIBRIUM EQUATIONS HAVE CONVERGED

 AVERAGE MOMENT                     4.842E+03   TIME AVG. MOMENT      4.799E+03
 ALL MOMENT    RESIDUALS ARE ZERO
 LARGEST INCREMENT OF ROTATION     -8.909E-31   AT NODE          2   DOF  5
 LARGEST CORRECTION TO ROTATION    -3.963E-36   AT NODE          1   DOF  4
          THE MOMENT    EQUILIBRIUM EQUATIONS HAVE CONVERGED

 COMPATIBILITY ERRORS:
    TYPE                NUMBER EXCEEDING TOLERANCE  MAXIMUM ERROR        IN ELEMENT
 VOLUMETRIC                          0                1.866E-06            6702548

 ITERATION SUMMARY FOR THE INCREMENT:   5 TOTAL ITERATIONS, OF WHICH
   2 ARE SEVERE DISCONTINUITY ITERATIONS AND  3 ARE EQUILIBRIUM ITERATIONS.

 TIME INCREMENT COMPLETED  2.000E-02,  FRACTION OF STEP COMPLETED  0.100    
 STEP TIME COMPLETED       0.100    ,  TOTAL TIME COMPLETED         6.10    


  INCREMENT     6 STARTS. ATTEMPT NUMBER  1, TIME INCREMENT  2.000E-02

                   20 SEVERE DISCONTINUITIES OCCURRED DURING INCREMENT ATTEMPT INITIALIZATION.
                   17 POINTS CHANGED FROM STICKING TO SLIPPING
                    3 POINTS CHANGED TO SLIPPING WITH NEGATIVE CPRESS
 
	UNSYMMETRIC HYBRID DIRECT SPARSE SOLVER RUNNING ON
 	1 HOST x 1 MPI RANK PER HOST x 8 THREADS PER RANK
        NUMBER OF EQUATIONS:  291977
        NUMBER OF RHS:        1
        NUMBER OF FLOPS:      3.120e+12
        SOLVER ELAPSED TIME:  17s
 

 ***WARNING: THE SYSTEM MATRIX HAS 10 NEGATIVE EIGENVALUES.
             EXPLANATIONS ARE SUGGESTED AFTER THE FIRST OCCURRENCE OF THIS MESSAGE.

                   24 SEVERE DISCONTINUITIES OCCURRED DURING THIS ITERATION.
                    4 POINTS CHANGED FROM OPEN TO CLOSED
                    6 POINTS CHANGED FROM CLOSED TO OPEN
                   14 POINTS CHANGED FROM STICKING TO SLIPPING

               CONVERGENCE CHECKS FOR SEVERE DISCONTINUITY ITERATION     1

   MAX. PENETRATION ERROR 13.9962E-03  AT NODE 8902310 OF CONTACT PAIR 
   (TREAD_TOP_SURFACE,ROAD_MASTER_SURFACE)
   MAX. CONTACT FORCE ERROR 2.43159     AT NODE 8902310 OF CONTACT PAIR 
   (TREAD_TOP_SURFACE,ROAD_MASTER_SURFACE)
          THE CONTACT CONSTRAINT ERRORS ARE WITHIN THE TOLERANCES.

 AVERAGE FORCE                       12.8       TIME AVG. FORCE        12.8    
 LARGEST SCALED RESIDUAL FORCE       3.45       AT NODE    6402284   DOF  3
  CORRESPONDING RESIDUAL FORCE       3.45    
 LARGEST INCREMENT OF DISP.         -2.82       AT NODE     702728   DOF  1
 LARGEST CORRECTION TO DISP.        0.494       AT NODE     702721   DOF  1
          FORCE     EQUILIBRIUM NOT ACHIEVED WITHIN TOLERANCE.

 AVERAGE MOMENT                     4.876E+03   TIME AVG. MOMENT      4.812E+03
 ALL MOMENT    RESIDUALS ARE ZERO
 LARGEST INCREMENT OF ROTATION     -1.014E-30   AT NODE          1   DOF  5
 LARGEST CORRECTION TO ROTATION    -1.238E-31   AT NODE          1   DOF  5
          THE MOMENT    EQUILIBRIUM EQUATIONS HAVE CONVERGED

 COMPATIBILITY ERRORS:
    TYPE                NUMBER EXCEEDING TOLERANCE  MAXIMUM ERROR        IN ELEMENT
 VOLUMETRIC                        212               -2.880E-04             702241
 
	UNSYMMETRIC HYBRID DIRECT SPARSE SOLVER RUNNING ON
 	1 HOST x 1 MPI RANK PER HOST x 8 THREADS PER RANK
        NUMBER OF EQUATIONS:  291975
        NUMBER OF RHS:        1
        NUMBER OF FLOPS:      3.120e+12
        SOLVER ELAPSED TIME:  17s
 

 ***WARNING: THE SYSTEM MATRIX HAS 12 NEGATIVE EIGENVALUES.
             EXPLANATIONS ARE SUGGESTED AFTER THE FIRST OCCURRENCE OF THIS MESSAGE.

                    3 SEVERE DISCONTINUITIES OCCURRED DURING THIS ITERATION.
                    3 POINTS CHANGED FROM SLIPPING TO STICKING

               CONVERGENCE CHECKS FOR SEVERE DISCONTINUITY ITERATION     2

   MAX. PENETRATION ERROR 4.25449E-06 AT NODE 8902310 OF CONTACT PAIR 
   (TREAD_TOP_SURFACE,ROAD_MASTER_SURFACE)
   MAX. CONTACT FORCE ERROR 737.686E-06   AT NODE 8902310 OF CONTACT PAIR 
   (TREAD_TOP_SURFACE,ROAD_MASTER_SURFACE)
          THE CONTACT CONSTRAINT ERRORS ARE WITHIN THE TOLERANCES.

 AVERAGE FORCE                       12.8       TIME AVG. FORCE        12.8    
 LARGEST SCALED RESIDUAL FORCE      -11.1       AT NODE    7102671   DOF  2
  CORRESPONDING RESIDUAL FORCE      -11.1    
 LARGEST INCREMENT OF DISP.         -2.79       AT NODE     802742   DOF  1
 LARGEST CORRECTION TO DISP.        7.442E-02   AT NODE     602701   DOF  1
          FORCE     EQUILIBRIUM NOT ACHIEVED WITHIN TOLERANCE.

 AVERAGE MOMENT                     4.875E+03   TIME AVG. MOMENT      4.812E+03
 ALL MOMENT    RESIDUALS ARE ZERO
 LARGEST INCREMENT OF ROTATION     -1.014E-30   AT NODE          1   DOF  5
 LARGEST CORRECTION TO ROTATION    -5.204E-34   AT NODE          2   DOF  4
          THE MOMENT    EQUILIBRIUM EQUATIONS HAVE CONVERGED

 COMPATIBILITY ERRORS:
    TYPE                NUMBER EXCEEDING TOLERANCE  MAXIMUM ERROR        IN ELEMENT
 VOLUMETRIC                          2               -1.184E-05            8902274
 
	UNSYMMETRIC HYBRID DIRECT SPARSE SOLVER RUNNING ON
 	1 HOST x 1 MPI RANK PER HOST x 8 THREADS PER RANK
        NUMBER OF EQUATIONS:  291975
        NUMBER OF RHS:        1
        NUMBER OF FLOPS:      3.120e+12
        SOLVER ELAPSED TIME:  17s
 

 ***WARNING: THE SYSTEM MATRIX HAS 12 NEGATIVE EIGENVALUES.
             EXPLANATIONS ARE SUGGESTED AFTER THE FIRST OCCURRENCE OF THIS MESSAGE.

               CONVERGENCE CHECKS FOR EQUILIBRIUM ITERATION     1

   MAX. PENETRATION ERROR -81.2591E-09  AT NODE 502710 OF CONTACT PAIR 
   (TREAD_TOP_SURFACE,ROAD_MASTER_SURFACE)
   MAX. CONTACT FORCE ERROR -26.8011E-06  AT NODE 502710 OF CONTACT PAIR 
   (TREAD_TOP_SURFACE,ROAD_MASTER_SURFACE)
          THE CONTACT CONSTRAINTS HAVE CONVERGED.

 AVERAGE FORCE                       12.8       TIME AVG. FORCE        12.8    
 LARGEST SCALED RESIDUAL FORCE     -0.148       AT NODE    7102613   DOF  2
  CORRESPONDING RESIDUAL FORCE     -0.148    
 LARGEST INCREMENT OF DISP.         -2.79       AT NODE     802742   DOF  1
 LARGEST CORRECTION TO DISP.        4.509E-02   AT NODE     602710   DOF  1
          FORCE     EQUILIBRIUM NOT ACHIEVED WITHIN TOLERANCE.

 AVERAGE MOMENT                     4.875E+03   TIME AVG. MOMENT      4.812E+03
 ALL MOMENT    RESIDUALS ARE ZERO
 LARGEST INCREMENT OF ROTATION     -1.014E-30   AT NODE          1   DOF  5
 LARGEST CORRECTION TO ROTATION     1.254E-34   AT NODE          1   DOF  5
          THE MOMENT    EQUILIBRIUM RESPONSE WAS LINEAR IN THIS INCREMENT

 COMPATIBILITY ERRORS:
    TYPE                NUMBER EXCEEDING TOLERANCE  MAXIMUM ERROR        IN ELEMENT
 VOLUMETRIC                          0               -4.733E-06            7402449
 
	UNSYMMETRIC HYBRID DIRECT SPARSE SOLVER RUNNING ON
 	1 HOST x 1 MPI RANK PER HOST x 8 THREADS PER RANK
        NUMBER OF EQUATIONS:  291975
        NUMBER OF RHS:        1
        NUMBER OF FLOPS:      3.120e+12
        SOLVER ELAPSED TIME:  17s
 

 ***WARNING: THE SYSTEM MATRIX HAS 12 NEGATIVE EIGENVALUES.
             EXPLANATIONS ARE SUGGESTED AFTER THE FIRST OCCURRENCE OF THIS MESSAGE.

               CONVERGENCE CHECKS FOR EQUILIBRIUM ITERATION     2

   MAX. PENETRATION ERROR 17.4211E-12  AT NODE 502710 OF CONTACT PAIR 
   (TREAD_TOP_SURFACE,ROAD_MASTER_SURFACE)
   MAX. CONTACT FORCE ERROR 5.74603E-09 AT NODE 502710 OF CONTACT PAIR 
   (TREAD_TOP_SURFACE,ROAD_MASTER_SURFACE)
          THE CONTACT CONSTRAINTS HAVE CONVERGED.

 AVERAGE FORCE                       12.8       TIME AVG. FORCE        12.8    
 LARGEST SCALED RESIDUAL FORCE      1.026E-02   AT NODE    7102636   DOF  2
  CORRESPONDING RESIDUAL FORCE      1.026E-02
 LARGEST INCREMENT OF DISP.         -2.79       AT NODE     802742   DOF  1
 LARGEST CORRECTION TO DISP.        1.028E-03   AT NODE    7102640   DOF  2
          THE FORCE     EQUILIBRIUM EQUATIONS HAVE CONVERGED

 AVERAGE MOMENT                     4.875E+03   TIME AVG. MOMENT      4.812E+03
 ALL MOMENT    RESIDUALS ARE ZERO
 LARGEST INCREMENT OF ROTATION     -1.014E-30   AT NODE          1   DOF  5
 LARGEST CORRECTION TO ROTATION     2.708E-36   AT NODE          1   DOF  5
          THE MOMENT    EQUILIBRIUM EQUATIONS HAVE CONVERGED

 COMPATIBILITY ERRORS:
    TYPE                NUMBER EXCEEDING TOLERANCE  MAXIMUM ERROR        IN ELEMENT
 VOLUMETRIC                          0                1.477E-08            7002085

 ITERATION SUMMARY FOR THE INCREMENT:   4 TOTAL ITERATIONS, OF WHICH
   2 ARE SEVERE DISCONTINUITY ITERATIONS AND  2 ARE EQUILIBRIUM ITERATIONS.

 TIME INCREMENT COMPLETED  2.000E-02,  FRACTION OF STEP COMPLETED  0.120    
 STEP TIME COMPLETED       0.120    ,  TOTAL TIME COMPLETED         6.12    


  INCREMENT     7 STARTS. ATTEMPT NUMBER  1, TIME INCREMENT  2.000E-02

                   31 SEVERE DISCONTINUITIES OCCURRED DURING INCREMENT ATTEMPT INITIALIZATION.
                   27 POINTS CHANGED FROM STICKING TO SLIPPING
                    4 POINTS CHANGED TO SLIPPING WITH NEGATIVE CPRESS
 
	UNSYMMETRIC HYBRID DIRECT SPARSE SOLVER RUNNING ON
 	1 HOST x 1 MPI RANK PER HOST x 8 THREADS PER RANK
        NUMBER OF EQUATIONS:  291975
        NUMBER OF RHS:        1
        NUMBER OF FLOPS:      3.120e+12
        SOLVER ELAPSED TIME:  17s
 

 ***WARNING: THE SYSTEM MATRIX HAS 22 NEGATIVE EIGENVALUES.
             EXPLANATIONS ARE SUGGESTED AFTER THE FIRST OCCURRENCE OF THIS MESSAGE.

                   32 SEVERE DISCONTINUITIES OCCURRED DURING THIS ITERATION.
                    3 POINTS CHANGED FROM OPEN TO CLOSED
                    9 POINTS CHANGED FROM CLOSED TO OPEN
                    4 POINTS CHANGED FROM SLIPPING TO STICKING
                   16 POINTS CHANGED FROM STICKING TO SLIPPING

               CONVERGENCE CHECKS FOR SEVERE DISCONTINUITY ITERATION     1

   MAX. PENETRATION ERROR 2.11141E-03 AT NODE 1002227 OF CONTACT PAIR 
   (TREAD_TOP_SURFACE,ROAD_MASTER_SURFACE)
   MAX. CONTACT FORCE ERROR -3.96632     AT NODE 6302098 OF CONTACT PAIR 
   (LOWER_RIM_SLAVE_SURFACE,LOWER_RIM_MASTER_SURFACE)
          THE CONTACT CONSTRAINT ERRORS ARE WITHIN THE TOLERANCES.

 AVERAGE FORCE                       12.8       TIME AVG. FORCE        12.8    
 LARGEST SCALED RESIDUAL FORCE       11.5       AT NODE    1102464   DOF  3
  CORRESPONDING RESIDUAL FORCE       11.5    
 LARGEST INCREMENT OF DISP.         -2.58       AT NODE     602728   DOF  1
 LARGEST CORRECTION TO DISP.        0.510       AT NODE     702728   DOF  1
          FORCE     EQUILIBRIUM NOT ACHIEVED WITHIN TOLERANCE.

 AVERAGE MOMENT                     4.914E+03   TIME AVG. MOMENT      4.826E+03
 ALL MOMENT    RESIDUALS ARE ZERO
 LARGEST INCREMENT OF ROTATION     -1.126E-30   AT NODE          1   DOF  5
 LARGEST CORRECTION TO ROTATION    -1.126E-31   AT NODE          1   DOF  5
          THE MOMENT    EQUILIBRIUM EQUATIONS HAVE CONVERGED

 COMPATIBILITY ERRORS:
    TYPE                NUMBER EXCEEDING TOLERANCE  MAXIMUM ERROR        IN ELEMENT
 VOLUMETRIC                        265               -4.488E-04             602255
 
	UNSYMMETRIC HYBRID DIRECT SPARSE SOLVER RUNNING ON
 	1 HOST x 1 MPI RANK PER HOST x 8 THREADS PER RANK
        NUMBER OF EQUATIONS:  291972
        NUMBER OF RHS:        1
        NUMBER OF FLOPS:      3.120e+12
        SOLVER ELAPSED TIME:  17s
 

 ***WARNING: THE SYSTEM MATRIX HAS 18 NEGATIVE EIGENVALUES.
             EXPLANATIONS ARE SUGGESTED AFTER THE FIRST OCCURRENCE OF THIS MESSAGE.

                   14 SEVERE DISCONTINUITIES OCCURRED DURING THIS ITERATION.
                    1 POINTS CHANGED FROM OPEN TO CLOSED
                   11 POINTS CHANGED FROM SLIPPING TO STICKING
                    2 POINTS CHANGED FROM STICKING TO SLIPPING

               CONVERGENCE CHECKS FOR SEVERE DISCONTINUITY ITERATION     2

   MAX. PENETRATION ERROR 5.31980E-03 AT NODE 6402098 OF CONTACT PAIR 
   (LOWER_RIM_SLAVE_SURFACE,LOWER_RIM_MASTER_SURFACE)
   MAX. CONTACT FORCE ERROR 20.1597      AT NODE 6402098 OF CONTACT PAIR 
   (LOWER_RIM_SLAVE_SURFACE,LOWER_RIM_MASTER_SURFACE)
          THE ESTIMATED CONTACT FORCE ERROR IS OUTSIDE OF CONVERGENCE TOLERANCES.

 AVERAGE FORCE                       12.8       TIME AVG. FORCE        12.8    
 LARGEST SCALED RESIDUAL FORCE      -452.       AT NODE    6402098   DOF  1
  CORRESPONDING RESIDUAL FORCE      -452.    
 LARGEST INCREMENT OF DISP.         -2.59       AT NODE     602728   DOF  1
 LARGEST CORRECTION TO DISP.        0.177       AT NODE     602184   DOF  1
          FORCE     EQUILIBRIUM NOT ACHIEVED WITHIN TOLERANCE.

 AVERAGE MOMENT                     4.934E+03   TIME AVG. MOMENT      4.829E+03
 ALL MOMENT    RESIDUALS ARE ZERO
 LARGEST INCREMENT OF ROTATION     -1.125E-30   AT NODE          1   DOF  5
 LARGEST CORRECTION TO ROTATION     1.206E-33   AT NODE          1   DOF  5
          THE MOMENT    EQUILIBRIUM EQUATIONS HAVE CONVERGED

 COMPATIBILITY ERRORS:
    TYPE                NUMBER EXCEEDING TOLERANCE  MAXIMUM ERROR        IN ELEMENT
 VOLUMETRIC                         11               -3.694E-05             602245
 
	UNSYMMETRIC HYBRID DIRECT SPARSE SOLVER RUNNING ON
 	1 HOST x 1 MPI RANK PER HOST x 8 THREADS PER RANK
        NUMBER OF EQUATIONS:  291973
        NUMBER OF RHS:        1
        NUMBER OF FLOPS:      3.120e+12
        SOLVER ELAPSED TIME:  18s
 

 ***WARNING: THE SYSTEM MATRIX HAS 18 NEGATIVE EIGENVALUES.
             EXPLANATIONS ARE SUGGESTED AFTER THE FIRST OCCURRENCE OF THIS MESSAGE.

                    3 SEVERE DISCONTINUITIES OCCURRED DURING THIS ITERATION.
                    1 POINTS CHANGED FROM SLIPPING TO STICKING
                    2 POINTS CHANGED FROM STICKING TO SLIPPING

               CONVERGENCE CHECKS FOR SEVERE DISCONTINUITY ITERATION     3

   MAX. PENETRATION ERROR -362.661E-09   AT NODE 6402098 OF CONTACT PAIR 
   (LOWER_RIM_SLAVE_SURFACE,LOWER_RIM_MASTER_SURFACE)
   MAX. CONTACT FORCE ERROR -1.37436E-03 AT NODE 6402098 OF CONTACT PAIR 
   (LOWER_RIM_SLAVE_SURFACE,LOWER_RIM_MASTER_SURFACE)
          THE CONTACT CONSTRAINT ERRORS ARE WITHIN THE TOLERANCES.

 AVERAGE FORCE                       12.8       TIME AVG. FORCE        12.8    
 LARGEST SCALED RESIDUAL FORCE      0.591       AT NODE    7702433   DOF  2
  CORRESPONDING RESIDUAL FORCE      0.591    
 LARGEST INCREMENT OF DISP.         -2.56       AT NODE     602720   DOF  1
 LARGEST CORRECTION TO DISP.        4.200E-02   AT NODE     502709   DOF  1
          FORCE     EQUILIBRIUM NOT ACHIEVED WITHIN TOLERANCE.

 AVERAGE MOMENT                     4.910E+03   TIME AVG. MOMENT      4.826E+03
 ALL MOMENT    RESIDUALS ARE ZERO
 LARGEST INCREMENT OF ROTATION     -1.125E-30   AT NODE          1   DOF  5
 LARGEST CORRECTION TO ROTATION     1.894E-34   AT NODE          1   DOF  5
          THE MOMENT    EQUILIBRIUM EQUATIONS HAVE CONVERGED

 COMPATIBILITY ERRORS:
    TYPE                NUMBER EXCEEDING TOLERANCE  MAXIMUM ERROR        IN ELEMENT
 VOLUMETRIC                          0               -2.979E-06             502258
 
	UNSYMMETRIC HYBRID DIRECT SPARSE SOLVER RUNNING ON
 	1 HOST x 1 MPI RANK PER HOST x 8 THREADS PER RANK
        NUMBER OF EQUATIONS:  291973
        NUMBER OF RHS:        1
        NUMBER OF FLOPS:      3.120e+12
        SOLVER ELAPSED TIME:  18s
 

 ***WARNING: THE SYSTEM MATRIX HAS 18 NEGATIVE EIGENVALUES.
             EXPLANATIONS ARE SUGGESTED AFTER THE FIRST OCCURRENCE OF THIS MESSAGE.

               CONVERGENCE CHECKS FOR EQUILIBRIUM ITERATION     1

   MAX. PENETRATION ERROR -75.8455E-09  AT NODE 6402098 OF CONTACT PAIR 
   (LOWER_RIM_SLAVE_SURFACE,LOWER_RIM_MASTER_SURFACE)
   MAX. CONTACT FORCE ERROR -287.451E-06   AT NODE 6402098 OF CONTACT PAIR 
   (LOWER_RIM_SLAVE_SURFACE,LOWER_RIM_MASTER_SURFACE)
          THE CONTACT CONSTRAINTS HAVE CONVERGED.

 AVERAGE FORCE                       12.8       TIME AVG. FORCE        12.8    
 LARGEST SCALED RESIDUAL FORCE      1.575E-02   AT NODE    6402099   DOF  2
  CORRESPONDING RESIDUAL FORCE      1.575E-02
 LARGEST INCREMENT OF DISP.         -2.56       AT NODE     602720   DOF  1
 LARGEST CORRECTION TO DISP.        6.997E-03   AT NODE     502310   DOF  1
          THE FORCE     EQUILIBRIUM EQUATIONS HAVE CONVERGED

 AVERAGE MOMENT                     4.910E+03   TIME AVG. MOMENT      4.826E+03
 ALL MOMENT    RESIDUALS ARE ZERO
 LARGEST INCREMENT OF ROTATION     -1.125E-30   AT NODE          1   DOF  5
 LARGEST CORRECTION TO ROTATION     1.115E-35   AT NODE          1   DOF  5
          THE MOMENT    EQUILIBRIUM RESPONSE WAS LINEAR IN THIS INCREMENT

 COMPATIBILITY ERRORS:
    TYPE                NUMBER EXCEEDING TOLERANCE  MAXIMUM ERROR        IN ELEMENT
 VOLUMETRIC                          0                6.081E-08             402274

 ITERATION SUMMARY FOR THE INCREMENT:   4 TOTAL ITERATIONS, OF WHICH
   3 ARE SEVERE DISCONTINUITY ITERATIONS AND  1 ARE EQUILIBRIUM ITERATIONS.

 TIME INCREMENT COMPLETED  2.000E-02,  FRACTION OF STEP COMPLETED  0.140    
 STEP TIME COMPLETED       0.140    ,  TOTAL TIME COMPLETED         6.14    


  INCREMENT     8 STARTS. ATTEMPT NUMBER  1, TIME INCREMENT  2.000E-02

                   65 SEVERE DISCONTINUITIES OCCURRED DURING INCREMENT ATTEMPT INITIALIZATION.
                   60 POINTS CHANGED FROM STICKING TO SLIPPING
                    5 POINTS CHANGED TO SLIPPING WITH NEGATIVE CPRESS
 
	UNSYMMETRIC HYBRID DIRECT SPARSE SOLVER RUNNING ON
 	1 HOST x 1 MPI RANK PER HOST x 8 THREADS PER RANK
        NUMBER OF EQUATIONS:  291973
        NUMBER OF RHS:        1
        NUMBER OF FLOPS:      3.120e+12
        SOLVER ELAPSED TIME:  19s
 

 ***WARNING: THE SYSTEM MATRIX HAS 32 NEGATIVE EIGENVALUES.
             EXPLANATIONS ARE SUGGESTED AFTER THE FIRST OCCURRENCE OF THIS MESSAGE.

                   52 SEVERE DISCONTINUITIES OCCURRED DURING THIS ITERATION.
                    3 POINTS CHANGED FROM OPEN TO CLOSED
                    8 POINTS CHANGED FROM CLOSED TO OPEN
                   11 POINTS CHANGED FROM SLIPPING TO STICKING
                   30 POINTS CHANGED FROM STICKING TO SLIPPING

               CONVERGENCE CHECKS FOR SEVERE DISCONTINUITY ITERATION     1

   MAX. PENETRATION ERROR 8.48960E-03 AT NODE 1202738 OF CONTACT PAIR 
   (TREAD_TOP_SURFACE,ROAD_MASTER_SURFACE)
   MAX. CONTACT FORCE ERROR -3.62398     AT NODE 6402098 OF CONTACT PAIR 
   (LOWER_RIM_SLAVE_SURFACE,LOWER_RIM_MASTER_SURFACE)
          THE CONTACT CONSTRAINT ERRORS ARE WITHIN THE TOLERANCES.

 AVERAGE FORCE                       12.8       TIME AVG. FORCE        12.8    
 LARGEST SCALED RESIDUAL FORCE       14.4       AT NODE     302711   DOF  1
  CORRESPONDING RESIDUAL FORCE       14.4    
 LARGEST INCREMENT OF DISP.         -2.28       AT NODE     502720   DOF  1
 LARGEST CORRECTION TO DISP.        0.561       AT NODE     602720   DOF  1
          FORCE     EQUILIBRIUM NOT ACHIEVED WITHIN TOLERANCE.

 AVERAGE MOMENT                     4.946E+03   TIME AVG. MOMENT      4.841E+03
 ALL MOMENT    RESIDUALS ARE ZERO
 LARGEST INCREMENT OF ROTATION     -1.223E-30   AT NODE          1   DOF  5
 LARGEST CORRECTION TO ROTATION    -9.782E-32   AT NODE          1   DOF  5
          THE MOMENT    EQUILIBRIUM EQUATIONS HAVE CONVERGED

 COMPATIBILITY ERRORS:
    TYPE                NUMBER EXCEEDING TOLERANCE  MAXIMUM ERROR        IN ELEMENT
 VOLUMETRIC                        334               -5.046E-04             602264
 
	UNSYMMETRIC HYBRID DIRECT SPARSE SOLVER RUNNING ON
 	1 HOST x 1 MPI RANK PER HOST x 8 THREADS PER RANK
        NUMBER OF EQUATIONS:  291967
        NUMBER OF RHS:        1
        NUMBER OF FLOPS:      3.120e+12
        SOLVER ELAPSED TIME:  17s
 

 ***WARNING: THE SYSTEM MATRIX HAS 32 NEGATIVE EIGENVALUES.
             EXPLANATIONS ARE SUGGESTED AFTER THE FIRST OCCURRENCE OF THIS MESSAGE.

                   14 SEVERE DISCONTINUITIES OCCURRED DURING THIS ITERATION.
                    3 POINTS CHANGED FROM OPEN TO CLOSED
                    6 POINTS CHANGED FROM SLIPPING TO STICKING
                    5 POINTS CHANGED FROM STICKING TO SLIPPING

               CONVERGENCE CHECKS FOR SEVERE DISCONTINUITY ITERATION     2

   MAX. PENETRATION ERROR 11.4412E-03  AT NODE 6502098 OF CONTACT PAIR 
   (LOWER_RIM_SLAVE_SURFACE,LOWER_RIM_MASTER_SURFACE)
   MAX. CONTACT FORCE ERROR 26.4390      AT NODE 6502098 OF CONTACT PAIR 
   (LOWER_RIM_SLAVE_SURFACE,LOWER_RIM_MASTER_SURFACE)
          PENETRATION ERROR TOO LARGE COMPARED TO DISPLACEMENT INCREMENT.

 AVERAGE FORCE                       12.8       TIME AVG. FORCE        12.8    
 LARGEST SCALED RESIDUAL FORCE       596.       AT NODE    6502098   DOF  3
  CORRESPONDING RESIDUAL FORCE       596.    
 LARGEST INCREMENT OF DISP.         -2.26       AT NODE     502720   DOF  1
 LARGEST CORRECTION TO DISP.        0.261       AT NODE     502184   DOF  1
          FORCE     EQUILIBRIUM NOT ACHIEVED WITHIN TOLERANCE.

 AVERAGE MOMENT                     4.970E+03   TIME AVG. MOMENT      4.844E+03
 ALL MOMENT    RESIDUALS ARE ZERO
 LARGEST INCREMENT OF ROTATION     -1.221E-30   AT NODE          1   DOF  5
 LARGEST CORRECTION TO ROTATION     1.785E-33   AT NODE          1   DOF  5
          THE MOMENT    EQUILIBRIUM EQUATIONS HAVE CONVERGED

 COMPATIBILITY ERRORS:
    TYPE                NUMBER EXCEEDING TOLERANCE  MAXIMUM ERROR        IN ELEMENT
 VOLUMETRIC                         39               -1.491E-04             502245
 
	UNSYMMETRIC HYBRID DIRECT SPARSE SOLVER RUNNING ON
 	1 HOST x 1 MPI RANK PER HOST x 8 THREADS PER RANK
        NUMBER OF EQUATIONS:  291970
        NUMBER OF RHS:        1
        NUMBER OF FLOPS:      3.120e+12
        SOLVER ELAPSED TIME:  17s
 

 ***WARNING: THE SYSTEM MATRIX HAS 30 NEGATIVE EIGENVALUES.
             EXPLANATIONS ARE SUGGESTED AFTER THE FIRST OCCURRENCE OF THIS MESSAGE.

                    2 SEVERE DISCONTINUITIES OCCURRED DURING THIS ITERATION.
                    2 POINTS CHANGED FROM SLIPPING TO STICKING

               CONVERGENCE CHECKS FOR SEVERE DISCONTINUITY ITERATION     3

   MAX. PENETRATION ERROR -1.40211E-06 AT NODE 6502098 OF CONTACT PAIR 
   (LOWER_RIM_SLAVE_SURFACE,LOWER_RIM_MASTER_SURFACE)
   MAX. CONTACT FORCE ERROR -3.24020E-03 AT NODE 6502098 OF CONTACT PAIR 
   (LOWER_RIM_SLAVE_SURFACE,LOWER_RIM_MASTER_SURFACE)
          THE CONTACT CONSTRAINT ERRORS ARE WITHIN THE TOLERANCES.

 AVERAGE FORCE                       12.8       TIME AVG. FORCE        12.8    
 LARGEST SCALED RESIDUAL FORCE     -0.837       AT NODE    6502098   DOF  1
  CORRESPONDING RESIDUAL FORCE     -0.837    
 LARGEST INCREMENT OF DISP.         -2.25       AT NODE     502720   DOF  1
 LARGEST CORRECTION TO DISP.        0.117       AT NODE     402184   DOF  1
          FORCE     EQUILIBRIUM NOT ACHIEVED WITHIN TOLERANCE.

 AVERAGE MOMENT                     4.941E+03   TIME AVG. MOMENT      4.840E+03
 ALL MOMENT    RESIDUALS ARE ZERO
 LARGEST INCREMENT OF ROTATION     -1.220E-30   AT NODE          1   DOF  5
 LARGEST CORRECTION TO ROTATION     5.373E-34   AT NODE          2   DOF  5
          THE MOMENT    EQUILIBRIUM EQUATIONS HAVE CONVERGED

 COMPATIBILITY ERRORS:
    TYPE                NUMBER EXCEEDING TOLERANCE  MAXIMUM ERROR        IN ELEMENT
 VOLUMETRIC                          2               -1.557E-05             302243
 
	UNSYMMETRIC HYBRID DIRECT SPARSE SOLVER RUNNING ON
 	1 HOST x 1 MPI RANK PER HOST x 8 THREADS PER RANK
        NUMBER OF EQUATIONS:  291970
        NUMBER OF RHS:        1
        NUMBER OF FLOPS:      3.120e+12
        SOLVER ELAPSED TIME:  17s
 

 ***WARNING: THE SYSTEM MATRIX HAS 30 NEGATIVE EIGENVALUES.
             EXPLANATIONS ARE SUGGESTED AFTER THE FIRST OCCURRENCE OF THIS MESSAGE.

               CONVERGENCE CHECKS FOR EQUILIBRIUM ITERATION     1

   MAX. PENETRATION ERROR -648.026E-09   AT NODE 6502098 OF CONTACT PAIR 
   (LOWER_RIM_SLAVE_SURFACE,LOWER_RIM_MASTER_SURFACE)
   MAX. CONTACT FORCE ERROR -1.49776E-03 AT NODE 6502098 OF CONTACT PAIR 
   (LOWER_RIM_SLAVE_SURFACE,LOWER_RIM_MASTER_SURFACE)
          THE CONTACT CONSTRAINTS HAVE CONVERGED.

 AVERAGE FORCE                       12.8       TIME AVG. FORCE        12.8    
 LARGEST SCALED RESIDUAL FORCE      6.328E-02   AT NODE    6502098   DOF  1
  CORRESPONDING RESIDUAL FORCE      6.328E-02
 LARGEST INCREMENT OF DISP.         -2.25       AT NODE     502720   DOF  1
 LARGEST CORRECTION TO DISP.       -1.359E-02   AT NODE    6502098   DOF  1
          THE FORCE     EQUILIBRIUM EQUATIONS HAVE CONVERGED

 AVERAGE MOMENT                     4.941E+03   TIME AVG. MOMENT      4.840E+03
 ALL MOMENT    RESIDUALS ARE ZERO
 LARGEST INCREMENT OF ROTATION     -1.220E-30   AT NODE          1   DOF  5
 LARGEST CORRECTION TO ROTATION     1.103E-35   AT NODE          1   DOF  5
          THE MOMENT    EQUILIBRIUM RESPONSE WAS LINEAR IN THIS INCREMENT

 COMPATIBILITY ERRORS:
    TYPE                NUMBER EXCEEDING TOLERANCE  MAXIMUM ERROR        IN ELEMENT
 VOLUMETRIC                          0               -1.802E-07            6502342

 ITERATION SUMMARY FOR THE INCREMENT:   4 TOTAL ITERATIONS, OF WHICH
   3 ARE SEVERE DISCONTINUITY ITERATIONS AND  1 ARE EQUILIBRIUM ITERATIONS.

 TIME INCREMENT COMPLETED  2.000E-02,  FRACTION OF STEP COMPLETED  0.160    
 STEP TIME COMPLETED       0.160    ,  TOTAL TIME COMPLETED         6.16    


  INCREMENT     9 STARTS. ATTEMPT NUMBER  1, TIME INCREMENT  2.000E-02

                  123 SEVERE DISCONTINUITIES OCCURRED DURING INCREMENT ATTEMPT INITIALIZATION.
                  121 POINTS CHANGED FROM STICKING TO SLIPPING
                    2 POINTS CHANGED TO SLIPPING WITH NEGATIVE CPRESS
 
	UNSYMMETRIC HYBRID DIRECT SPARSE SOLVER RUNNING ON
 	1 HOST x 1 MPI RANK PER HOST x 8 THREADS PER RANK
        NUMBER OF EQUATIONS:  291970
        NUMBER OF RHS:        1
        NUMBER OF FLOPS:      3.120e+12
        SOLVER ELAPSED TIME:  17s
 

 ***WARNING: THE SYSTEM MATRIX HAS 40 NEGATIVE EIGENVALUES.
             EXPLANATIONS ARE SUGGESTED AFTER THE FIRST OCCURRENCE OF THIS MESSAGE.

                  105 SEVERE DISCONTINUITIES OCCURRED DURING THIS ITERATION.
                    3 POINTS CHANGED FROM OPEN TO CLOSED
                    7 POINTS CHANGED FROM CLOSED TO OPEN
                   45 POINTS CHANGED FROM SLIPPING TO STICKING
                   50 POINTS CHANGED FROM STICKING TO SLIPPING

               CONVERGENCE CHECKS FOR SEVERE DISCONTINUITY ITERATION     1

   MAX. PENETRATION ERROR 8.97615E-03 AT NODE 8802729 OF CONTACT PAIR 
   (TREAD_TOP_SURFACE,ROAD_MASTER_SURFACE)
   MAX. CONTACT FORCE ERROR 3.07705     AT NODE 8802729 OF CONTACT PAIR 
   (TREAD_TOP_SURFACE,ROAD_MASTER_SURFACE)
          THE CONTACT CONSTRAINT ERRORS ARE WITHIN THE TOLERANCES.

 AVERAGE FORCE                       13.0       TIME AVG. FORCE        12.8    
 LARGEST SCALED RESIDUAL FORCE     -4.596E+03   AT NODE    3102674   DOF  1
  CORRESPONDING RESIDUAL FORCE     -4.596E+03
 LARGEST INCREMENT OF DISP.         -3.87       AT NODE    2102683   DOF  1
 LARGEST CORRECTION TO DISP.         2.71       AT NODE    2102614   DOF  1
          FORCE     EQUILIBRIUM NOT ACHIEVED WITHIN TOLERANCE.

 AVERAGE MOMENT                     4.963E+03   TIME AVG. MOMENT      4.854E+03
 ALL MOMENT    RESIDUALS ARE ZERO
 LARGEST INCREMENT OF ROTATION     -1.295E-30   AT NODE          1   DOF  5
 LARGEST CORRECTION TO ROTATION    -7.489E-32   AT NODE          1   DOF  5
          THE MOMENT    EQUILIBRIUM EQUATIONS HAVE CONVERGED

 COMPATIBILITY ERRORS:
    TYPE                NUMBER EXCEEDING TOLERANCE  MAXIMUM ERROR        IN ELEMENT
 VOLUMETRIC                       3072               -7.839E-03            2902090
 
	UNSYMMETRIC HYBRID DIRECT SPARSE SOLVER RUNNING ON
 	1 HOST x 1 MPI RANK PER HOST x 8 THREADS PER RANK
        NUMBER OF EQUATIONS:  291968
        NUMBER OF RHS:        1
        NUMBER OF FLOPS:      3.120e+12
        SOLVER ELAPSED TIME:  17s
 

 ***WARNING: THE SYSTEM MATRIX HAS 28 NEGATIVE EIGENVALUES.
             EXPLANATIONS ARE SUGGESTED AFTER THE FIRST OCCURRENCE OF THIS MESSAGE.
   UNIAXIAL CONSTRAINT COULD NOT BE SATISFIED FOR ELEMENT 8700012. THE PROBLEM 
   MAY BE CAUSED BY LARGE STRAIN INCREMENTS. A SMALLER TIME INCREMENT WILL BE 
   USED.
   UNIAXIAL CONSTRAINT COULD NOT BE SATISFIED FOR ELEMENT 400018. THE PROBLEM 
   MAY BE CAUSED BY LARGE STRAIN INCREMENTS. A SMALLER TIME INCREMENT WILL BE 
   USED.
   UNIAXIAL CONSTRAINT COULD NOT BE SATISFIED FOR ELEMENT 900018. THE PROBLEM 
   MAY BE CAUSED BY LARGE STRAIN INCREMENTS. A SMALLER TIME INCREMENT WILL BE 
   USED.
   UNIAXIAL CONSTRAINT COULD NOT BE SATISFIED FOR ELEMENT 9700018. THE PROBLEM 
   MAY BE CAUSED BY LARGE STRAIN INCREMENTS. A SMALLER TIME INCREMENT WILL BE 
   USED.
   UNIAXIAL CONSTRAINT COULD NOT BE SATISFIED FOR ELEMENT 600019. THE PROBLEM 
   MAY BE CAUSED BY LARGE STRAIN INCREMENTS. A SMALLER TIME INCREMENT WILL BE 
   USED.
   UNIAXIAL CONSTRAINT COULD NOT BE SATISFIED FOR ELEMENT 9800019. THE PROBLEM 
   MAY BE CAUSED BY LARGE STRAIN INCREMENTS. A SMALLER TIME INCREMENT WILL BE 
   USED.
   UNIAXIAL CONSTRAINT COULD NOT BE SATISFIED FOR ELEMENT 9900019. THE PROBLEM 
   MAY BE CAUSED BY LARGE STRAIN INCREMENTS. A SMALLER TIME INCREMENT WILL BE 
   USED.
   UNIAXIAL CONSTRAINT COULD NOT BE SATISFIED FOR ELEMENT 20. THE PROBLEM MAY 
   BE CAUSED BY LARGE STRAIN INCREMENTS. A SMALLER TIME INCREMENT WILL BE USED.
   UNIAXIAL CONSTRAINT COULD NOT BE SATISFIED FOR ELEMENT 100020. THE PROBLEM 
   MAY BE CAUSED BY LARGE STRAIN INCREMENTS. A SMALLER TIME INCREMENT WILL BE 
   USED.
   UNIAXIAL CONSTRAINT COULD NOT BE SATISFIED FOR ELEMENT 600020. THE PROBLEM 
   MAY BE CAUSED BY LARGE STRAIN INCREMENTS. A SMALLER TIME INCREMENT WILL BE 
   USED.
   UNIAXIAL CONSTRAINT COULD NOT BE SATISFIED FOR ELEMENT 700020. THE PROBLEM 
   MAY BE CAUSED BY LARGE STRAIN INCREMENTS. A SMALLER TIME INCREMENT WILL BE 
   USED.
   UNIAXIAL CONSTRAINT COULD NOT BE SATISFIED FOR ELEMENT 800020. THE PROBLEM 
   MAY BE CAUSED BY LARGE STRAIN INCREMENTS. A SMALLER TIME INCREMENT WILL BE 
   USED.
   UNIAXIAL CONSTRAINT COULD NOT BE SATISFIED FOR ELEMENT 9900020. THE PROBLEM 
   MAY BE CAUSED BY LARGE STRAIN INCREMENTS. A SMALLER TIME INCREMENT WILL BE 
   USED.
   UNIAXIAL CONSTRAINT COULD NOT BE SATISFIED FOR ELEMENT 100021. THE PROBLEM 
   MAY BE CAUSED BY LARGE STRAIN INCREMENTS. A SMALLER TIME INCREMENT WILL BE 
   USED.
   UNIAXIAL CONSTRAINT COULD NOT BE SATISFIED FOR ELEMENT 800021. THE PROBLEM 
   MAY BE CAUSED BY LARGE STRAIN INCREMENTS. A SMALLER TIME INCREMENT WILL BE 
   USED.
   UNIAXIAL CONSTRAINT COULD NOT BE SATISFIED FOR ELEMENT 200022. THE PROBLEM 
   MAY BE CAUSED BY LARGE STRAIN INCREMENTS. A SMALLER TIME INCREMENT WILL BE 
   USED.
   UNIAXIAL CONSTRAINT COULD NOT BE SATISFIED FOR ELEMENT 300022. THE PROBLEM 
   MAY BE CAUSED BY LARGE STRAIN INCREMENTS. A SMALLER TIME INCREMENT WILL BE 
   USED.
   UNIAXIAL CONSTRAINT COULD NOT BE SATISFIED FOR ELEMENT 1100022. THE PROBLEM 
   MAY BE CAUSED BY LARGE STRAIN INCREMENTS. A SMALLER TIME INCREMENT WILL BE 
   USED.
   UNIAXIAL CONSTRAINT COULD NOT BE SATISFIED FOR ELEMENT 400023. THE PROBLEM 
   MAY BE CAUSED BY LARGE STRAIN INCREMENTS. A SMALLER TIME INCREMENT WILL BE 
   USED.
   UNIAXIAL CONSTRAINT COULD NOT BE SATISFIED FOR ELEMENT 500023. THE PROBLEM 
   MAY BE CAUSED BY LARGE STRAIN INCREMENTS. A SMALLER TIME INCREMENT WILL BE 
   USED.
   UNIAXIAL CONSTRAINT COULD NOT BE SATISFIED FOR ELEMENT 600023. THE PROBLEM 
   MAY BE CAUSED BY LARGE STRAIN INCREMENTS. A SMALLER TIME INCREMENT WILL BE 
   USED.
   UNIAXIAL CONSTRAINT COULD NOT BE SATISFIED FOR ELEMENT 700023. THE PROBLEM 
   MAY BE CAUSED BY LARGE STRAIN INCREMENTS. A SMALLER TIME INCREMENT WILL BE 
   USED.
   UNIAXIAL CONSTRAINT COULD NOT BE SATISFIED FOR ELEMENT 1100023. THE PROBLEM 
   MAY BE CAUSED BY LARGE STRAIN INCREMENTS. A SMALLER TIME INCREMENT WILL BE 
   USED.
   UNIAXIAL CONSTRAINT COULD NOT BE SATISFIED FOR ELEMENT 1200023. THE PROBLEM 
   MAY BE CAUSED BY LARGE STRAIN INCREMENTS. A SMALLER TIME INCREMENT WILL BE 
   USED.
   UNIAXIAL CONSTRAINT COULD NOT BE SATISFIED FOR ELEMENT 1500023. THE PROBLEM 
   MAY BE CAUSED BY LARGE STRAIN INCREMENTS. A SMALLER TIME INCREMENT WILL BE 
   USED.
   UNIAXIAL CONSTRAINT COULD NOT BE SATISFIED FOR ELEMENT 600024. THE PROBLEM 
   MAY BE CAUSED BY LARGE STRAIN INCREMENTS. A SMALLER TIME INCREMENT WILL BE 
   USED.
   UNIAXIAL CONSTRAINT COULD NOT BE SATISFIED FOR ELEMENT 700024. THE PROBLEM 
   MAY BE CAUSED BY LARGE STRAIN INCREMENTS. A SMALLER TIME INCREMENT WILL BE 
   USED.
   UNIAXIAL CONSTRAINT COULD NOT BE SATISFIED FOR ELEMENT 800024. THE PROBLEM 
   MAY BE CAUSED BY LARGE STRAIN INCREMENTS. A SMALLER TIME INCREMENT WILL BE 
   USED.
   UNIAXIAL CONSTRAINT COULD NOT BE SATISFIED FOR ELEMENT 900024. THE PROBLEM 
   MAY BE CAUSED BY LARGE STRAIN INCREMENTS. A SMALLER TIME INCREMENT WILL BE 
   USED.
   UNIAXIAL CONSTRAINT COULD NOT BE SATISFIED FOR ELEMENT 1700024. THE PROBLEM 
[...]

 COMPATIBILITY ERRORS:
    TYPE                NUMBER EXCEEDING TOLERANCE  MAXIMUM ERROR        IN ELEMENT
 VOLUMETRIC                          0               -5.185E-07            9702067
 
	UNSYMMETRIC HYBRID DIRECT SPARSE SOLVER RUNNING ON
 	1 HOST x 1 MPI RANK PER HOST x 8 THREADS PER RANK
        NUMBER OF EQUATIONS:  291954
        NUMBER OF RHS:        1
        NUMBER OF FLOPS:      3.177e+12
        SOLVER ELAPSED TIME:  19s
 

 ***WARNING: THE SYSTEM MATRIX HAS 26 NEGATIVE EIGENVALUES.
             EXPLANATIONS ARE SUGGESTED AFTER THE FIRST OCCURRENCE OF THIS MESSAGE.

               CONVERGENCE CHECKS FOR EQUILIBRIUM ITERATION     1

   MAX. PENETRATION ERROR 2.50759E-09 AT NODE 9802736 OF CONTACT PAIR 
   (TREAD_TOP_SURFACE,ROAD_MASTER_SURFACE)
   MAX. CONTACT FORCE ERROR 665.645E-09   AT NODE 9802736 OF CONTACT PAIR 
   (TREAD_TOP_SURFACE,ROAD_MASTER_SURFACE)
          THE CONTACT CONSTRAINTS HAVE CONVERGED.

 AVERAGE FORCE                       13.0       TIME AVG. FORCE        12.9    
 LARGEST SCALED RESIDUAL FORCE      8.751E-04   AT NODE          3   DOF  3
  CORRESPONDING RESIDUAL FORCE      8.751E-04
 LARGEST INCREMENT OF DISP.         4.033E-02   AT NODE    1202566   DOF  3
 LARGEST CORRECTION TO DISP.       -6.890E-04   AT NODE    9802736   DOF  1
 ESTIMATE OF DISP.    CORRECTION   -7.547E-06
          FORCE     EQUILIB. ACCEPTED BASED ON SMALL RESIDUAL AND ESTIMATED CORRECTION

 AVERAGE MOMENT                     4.999E+03   TIME AVG. MOMENT      4.974E+03
 ALL MOMENT    RESIDUALS ARE ZERO
 LARGEST INCREMENT OF ROTATION     -1.441E-30   AT NODE          2   DOF  5
 LARGEST CORRECTION TO ROTATION    -5.766E-37   AT NODE          2   DOF  4
          THE MOMENT    EQUILIBRIUM RESPONSE WAS LINEAR IN THIS INCREMENT

 COMPATIBILITY ERRORS:
    TYPE                NUMBER EXCEEDING TOLERANCE  MAXIMUM ERROR        IN ELEMENT
 VOLUMETRIC                          0               -5.976E-09             202067

 ITERATION SUMMARY FOR THE INCREMENT:   2 TOTAL ITERATIONS, OF WHICH
   1 ARE SEVERE DISCONTINUITY ITERATIONS AND  1 ARE EQUILIBRIUM ITERATIONS.

 TIME INCREMENT COMPLETED  2.000E-02,  FRACTION OF STEP COMPLETED  0.921    
 STEP TIME COMPLETED       0.921    ,  TOTAL TIME COMPLETED         6.92    


  INCREMENT    49 STARTS. ATTEMPT NUMBER  1, TIME INCREMENT  2.000E-02
 
	UNSYMMETRIC HYBRID DIRECT SPARSE SOLVER RUNNING ON
 	1 HOST x 1 MPI RANK PER HOST x 8 THREADS PER RANK
        NUMBER OF EQUATIONS:  291954
        NUMBER OF RHS:        1
        NUMBER OF FLOPS:      3.177e+12
        SOLVER ELAPSED TIME:  19s
 

 ***WARNING: THE SYSTEM MATRIX HAS 26 NEGATIVE EIGENVALUES.
             EXPLANATIONS ARE SUGGESTED AFTER THE FIRST OCCURRENCE OF THIS MESSAGE.

                    2 SEVERE DISCONTINUITIES OCCURRED DURING THIS ITERATION.
                    2 POINTS CHANGED FROM CLOSED TO OPEN

               CONVERGENCE CHECKS FOR SEVERE DISCONTINUITY ITERATION     1

   MAX. PENETRATION ERROR -4.46397E-09 AT NODE 9902736 OF CONTACT PAIR 
   (TREAD_TOP_SURFACE,ROAD_MASTER_SURFACE)
   MAX. CONTACT FORCE ERROR -21.9934E-03  AT NODE 9002270 OF CONTACT PAIR 
   (TREAD_TOP_SURFACE,ROAD_MASTER_SURFACE)
          THE CONTACT CONSTRAINT ERRORS ARE WITHIN THE TOLERANCES.

 AVERAGE FORCE                       13.0       TIME AVG. FORCE        12.9    
 LARGEST SCALED RESIDUAL FORCE     -0.123       AT NODE    6902338   DOF  2
  CORRESPONDING RESIDUAL FORCE     -0.123    
 LARGEST INCREMENT OF DISP.         4.432E-02   AT NODE    1202566   DOF  3
 LARGEST CORRECTION TO DISP.        4.818E-03   AT NODE    1302553   DOF  3
          FORCE     EQUILIBRIUM NOT ACHIEVED WITHIN TOLERANCE.

 AVERAGE MOMENT                     5.002E+03   TIME AVG. MOMENT      4.974E+03
 ALL MOMENT    RESIDUALS ARE ZERO
 LARGEST INCREMENT OF ROTATION     -1.442E-30   AT NODE          2   DOF  5
 LARGEST CORRECTION TO ROTATION    -5.932E-34   AT NODE          2   DOF  5
          THE MOMENT    EQUILIBRIUM EQUATIONS HAVE CONVERGED

 COMPATIBILITY ERRORS:
    TYPE                NUMBER EXCEEDING TOLERANCE  MAXIMUM ERROR        IN ELEMENT
 VOLUMETRIC                          0               -5.379E-07            9602025
 
	UNSYMMETRIC HYBRID DIRECT SPARSE SOLVER RUNNING ON
 	1 HOST x 1 MPI RANK PER HOST x 8 THREADS PER RANK
        NUMBER OF EQUATIONS:  291953
        NUMBER OF RHS:        1
        NUMBER OF FLOPS:      3.177e+12
        SOLVER ELAPSED TIME:  17s
 

 ***WARNING: THE SYSTEM MATRIX HAS 26 NEGATIVE EIGENVALUES.
             EXPLANATIONS ARE SUGGESTED AFTER THE FIRST OCCURRENCE OF THIS MESSAGE.

               CONVERGENCE CHECKS FOR EQUILIBRIUM ITERATION     1

   MAX. PENETRATION ERROR -9.39857E-09 AT NODE 9102270 OF CONTACT PAIR 
   (TREAD_TOP_SURFACE,ROAD_MASTER_SURFACE)
   MAX. CONTACT FORCE ERROR -2.45213E-06 AT NODE 9002741 OF CONTACT PAIR 
   (TREAD_TOP_SURFACE,ROAD_MASTER_SURFACE)
          THE CONTACT CONSTRAINTS HAVE CONVERGED.

 AVERAGE FORCE                       13.0       TIME AVG. FORCE        12.9    
 LARGEST SCALED RESIDUAL FORCE     -1.295E-04   AT NODE    4002674   DOF  3
  CORRESPONDING RESIDUAL FORCE     -1.295E-04
 LARGEST INCREMENT OF DISP.         4.421E-02   AT NODE    1202559   DOF  3
 LARGEST CORRECTION TO DISP.       -1.721E-03   AT NODE    9002270   DOF  3
 ESTIMATE OF DISP.    CORRECTION   -1.819E-06
          FORCE     EQUILIB. ACCEPTED BASED ON SMALL RESIDUAL AND ESTIMATED CORRECTION

 AVERAGE MOMENT                     5.002E+03   TIME AVG. MOMENT      4.974E+03
 ALL MOMENT    RESIDUALS ARE ZERO
 LARGEST INCREMENT OF ROTATION     -1.442E-30   AT NODE          2   DOF  5
 LARGEST CORRECTION TO ROTATION     5.072E-36   AT NODE          2   DOF  5
          THE MOMENT    EQUILIBRIUM RESPONSE WAS LINEAR IN THIS INCREMENT

 COMPATIBILITY ERRORS:
    TYPE                NUMBER EXCEEDING TOLERANCE  MAXIMUM ERROR        IN ELEMENT
 VOLUMETRIC                          0               -1.235E-08            8902281

 ITERATION SUMMARY FOR THE INCREMENT:   2 TOTAL ITERATIONS, OF WHICH
   1 ARE SEVERE DISCONTINUITY ITERATIONS AND  1 ARE EQUILIBRIUM ITERATIONS.

 TIME INCREMENT COMPLETED  2.000E-02,  FRACTION OF STEP COMPLETED  0.941    
 STEP TIME COMPLETED       0.941    ,  TOTAL TIME COMPLETED         6.94    


  INCREMENT    50 STARTS. ATTEMPT NUMBER  1, TIME INCREMENT  2.000E-02
 
	UNSYMMETRIC HYBRID DIRECT SPARSE SOLVER RUNNING ON
 	1 HOST x 1 MPI RANK PER HOST x 8 THREADS PER RANK
        NUMBER OF EQUATIONS:  291953
        NUMBER OF RHS:        1
        NUMBER OF FLOPS:      3.177e+12
        SOLVER ELAPSED TIME:  19s
 

 ***WARNING: THE SYSTEM MATRIX HAS 26 NEGATIVE EIGENVALUES.
             EXPLANATIONS ARE SUGGESTED AFTER THE FIRST OCCURRENCE OF THIS MESSAGE.

                    1 SEVERE DISCONTINUITIES OCCURRED DURING THIS ITERATION.
                    1 POINTS CHANGED FROM CLOSED TO OPEN

               CONVERGENCE CHECKS FOR SEVERE DISCONTINUITY ITERATION     1

   MAX. PENETRATION ERROR -11.8251E-09  AT NODE 202464 OF CONTACT PAIR 
   (UPPER_RIM_SLAVE_SURFACE,UPPER_RIM_MASTER_SURFACE)
   MAX. CONTACT FORCE ERROR -61.6473E-03  AT NODE 102464 OF CONTACT PAIR 
   (UPPER_RIM_SLAVE_SURFACE,UPPER_RIM_MASTER_SURFACE)
          THE CONTACT CONSTRAINT ERRORS ARE WITHIN THE TOLERANCES.

 AVERAGE FORCE                       13.0       TIME AVG. FORCE        12.9    
 LARGEST SCALED RESIDUAL FORCE      6.108E-02   AT NODE     102464   DOF  3
  CORRESPONDING RESIDUAL FORCE      6.108E-02
 LARGEST INCREMENT OF DISP.         4.846E-02   AT NODE    1302559   DOF  3
 LARGEST CORRECTION TO DISP.        6.810E-03   AT NODE    1302553   DOF  3
          DISP.    CORRECTION TOO LARGE COMPARED TO DISP.    INCREMENT

 AVERAGE MOMENT                     5.007E+03   TIME AVG. MOMENT      4.975E+03
 ALL MOMENT    RESIDUALS ARE ZERO
 LARGEST INCREMENT OF ROTATION     -1.442E-30   AT NODE          2   DOF  5
 LARGEST CORRECTION TO ROTATION    -5.826E-34   AT NODE          2   DOF  5
          THE MOMENT    EQUILIBRIUM EQUATIONS HAVE CONVERGED

 COMPATIBILITY ERRORS:
    TYPE                NUMBER EXCEEDING TOLERANCE  MAXIMUM ERROR        IN ELEMENT
 VOLUMETRIC                          0               -1.193E-06            1502067
 
	UNSYMMETRIC HYBRID DIRECT SPARSE SOLVER RUNNING ON
 	1 HOST x 1 MPI RANK PER HOST x 8 THREADS PER RANK
        NUMBER OF EQUATIONS:  291952
        NUMBER OF RHS:        1
        NUMBER OF FLOPS:      3.177e+12
        SOLVER ELAPSED TIME:  19s
 

 ***WARNING: THE SYSTEM MATRIX HAS 26 NEGATIVE EIGENVALUES.
             EXPLANATIONS ARE SUGGESTED AFTER THE FIRST OCCURRENCE OF THIS MESSAGE.

               CONVERGENCE CHECKS FOR EQUILIBRIUM ITERATION     1

   MAX. PENETRATION ERROR -696.319E-12   AT NODE 202464 OF CONTACT PAIR 
   (UPPER_RIM_SLAVE_SURFACE,UPPER_RIM_MASTER_SURFACE)
   MAX. CONTACT FORCE ERROR -255.667E-09   AT NODE 202464 OF CONTACT PAIR 
   (UPPER_RIM_SLAVE_SURFACE,UPPER_RIM_MASTER_SURFACE)
          THE CONTACT CONSTRAINTS HAVE CONVERGED.

 AVERAGE FORCE                       13.0       TIME AVG. FORCE        12.9    
 LARGEST SCALED RESIDUAL FORCE     -2.316E-03   AT NODE     102465   DOF  3
  CORRESPONDING RESIDUAL FORCE     -2.316E-03
 LARGEST INCREMENT OF DISP.         4.899E-02   AT NODE    1202559   DOF  3
 LARGEST CORRECTION TO DISP.        3.056E-03   AT NODE     102464   DOF  3
 ESTIMATE OF DISP.    CORRECTION    1.148E-04
          FORCE     EQUILIB. ACCEPTED BASED ON SMALL RESIDUAL AND ESTIMATED CORRECTION

 AVERAGE MOMENT                     5.007E+03   TIME AVG. MOMENT      4.975E+03
 ALL MOMENT    RESIDUALS ARE ZERO
 LARGEST INCREMENT OF ROTATION     -1.442E-30   AT NODE          2   DOF  5
 LARGEST CORRECTION TO ROTATION    -7.803E-37   AT NODE          2   DOF  4
          THE MOMENT    EQUILIBRIUM RESPONSE WAS LINEAR IN THIS INCREMENT

 COMPATIBILITY ERRORS:
    TYPE                NUMBER EXCEEDING TOLERANCE  MAXIMUM ERROR        IN ELEMENT
 VOLUMETRIC                          0               -4.536E-08             402067

 ITERATION SUMMARY FOR THE INCREMENT:   2 TOTAL ITERATIONS, OF WHICH
   1 ARE SEVERE DISCONTINUITY ITERATIONS AND  1 ARE EQUILIBRIUM ITERATIONS.

 TIME INCREMENT COMPLETED  2.000E-02,  FRACTION OF STEP COMPLETED  0.961    
 STEP TIME COMPLETED       0.961    ,  TOTAL TIME COMPLETED         6.96    


  INCREMENT    51 STARTS. ATTEMPT NUMBER  1, TIME INCREMENT  2.000E-02

                    1 SEVERE DISCONTINUITIES OCCURRED DURING INCREMENT ATTEMPT INITIALIZATION.
                    1 POINTS CHANGED FROM STICKING TO SLIPPING
 
	UNSYMMETRIC HYBRID DIRECT SPARSE SOLVER RUNNING ON
 	1 HOST x 1 MPI RANK PER HOST x 8 THREADS PER RANK
        NUMBER OF EQUATIONS:  291952
        NUMBER OF RHS:        1
        NUMBER OF FLOPS:      3.177e+12
        SOLVER ELAPSED TIME:  19s
 

 ***WARNING: THE SYSTEM MATRIX HAS 26 NEGATIVE EIGENVALUES.
             EXPLANATIONS ARE SUGGESTED AFTER THE FIRST OCCURRENCE OF THIS MESSAGE.

                    1 SEVERE DISCONTINUITIES OCCURRED DURING THIS ITERATION.
                    1 POINTS CHANGED FROM CLOSED TO OPEN

               CONVERGENCE CHECKS FOR SEVERE DISCONTINUITY ITERATION     1

   MAX. PENETRATION ERROR -30.1241E-09  AT NODE 4802098 OF CONTACT PAIR 
   (LOWER_RIM_SLAVE_SURFACE,LOWER_RIM_MASTER_SURFACE)
   MAX. CONTACT FORCE ERROR -33.6041E-03  AT NODE 5802465 OF CONTACT PAIR 
   (UPPER_RIM_SLAVE_SURFACE,UPPER_RIM_MASTER_SURFACE)
          THE CONTACT CONSTRAINT ERRORS ARE WITHIN THE TOLERANCES.

 AVERAGE FORCE                       13.0       TIME AVG. FORCE        12.9    
 LARGEST SCALED RESIDUAL FORCE     -2.967E-02   AT NODE    5802465   DOF  1
  CORRESPONDING RESIDUAL FORCE     -2.967E-02
 LARGEST INCREMENT OF DISP.         5.581E-02   AT NODE    1302559   DOF  3
 LARGEST CORRECTION TO DISP.        9.297E-03   AT NODE    1402553   DOF  3
          DISP.    CORRECTION TOO LARGE COMPARED TO DISP.    INCREMENT

 AVERAGE MOMENT                     5.012E+03   TIME AVG. MOMENT      4.975E+03
 ALL MOMENT    RESIDUALS ARE ZERO
 LARGEST INCREMENT OF ROTATION     -1.443E-30   AT NODE          2   DOF  5
 LARGEST CORRECTION TO ROTATION    -5.786E-34   AT NODE          2   DOF  5
          THE MOMENT    EQUILIBRIUM EQUATIONS HAVE CONVERGED

 COMPATIBILITY ERRORS:
    TYPE                NUMBER EXCEEDING TOLERANCE  MAXIMUM ERROR        IN ELEMENT
 VOLUMETRIC                          0               -1.986E-06            1602067
 
	UNSYMMETRIC HYBRID DIRECT SPARSE SOLVER RUNNING ON
 	1 HOST x 1 MPI RANK PER HOST x 8 THREADS PER RANK
        NUMBER OF EQUATIONS:  291951
        NUMBER OF RHS:        1
        NUMBER OF FLOPS:      3.177e+12
        SOLVER ELAPSED TIME:  19s
 

 ***WARNING: THE SYSTEM MATRIX HAS 26 NEGATIVE EIGENVALUES.
             EXPLANATIONS ARE SUGGESTED AFTER THE FIRST OCCURRENCE OF THIS MESSAGE.

               CONVERGENCE CHECKS FOR EQUILIBRIUM ITERATION     1

   MAX. PENETRATION ERROR -26.1917E-12  AT NODE 5702465 OF CONTACT PAIR 
   (UPPER_RIM_SLAVE_SURFACE,UPPER_RIM_MASTER_SURFACE)
   MAX. CONTACT FORCE ERROR -99.5903E-09  AT NODE 5702465 OF CONTACT PAIR 
   (UPPER_RIM_SLAVE_SURFACE,UPPER_RIM_MASTER_SURFACE)
          THE CONTACT CONSTRAINTS HAVE CONVERGED.

 AVERAGE FORCE                       13.0       TIME AVG. FORCE        12.9    
 LARGEST SCALED RESIDUAL FORCE     -1.443E-04   AT NODE    4002674   DOF  3
  CORRESPONDING RESIDUAL FORCE     -1.443E-04
 LARGEST INCREMENT OF DISP.         5.600E-02   AT NODE    1302559   DOF  3
 LARGEST CORRECTION TO DISP.       -1.067E-03   AT NODE    1502553   DOF  3
 ESTIMATE OF DISP.    CORRECTION   -4.582E-06
          FORCE     EQUILIB. ACCEPTED BASED ON SMALL RESIDUAL AND ESTIMATED CORRECTION

 AVERAGE MOMENT                     5.012E+03   TIME AVG. MOMENT      4.975E+03
 ALL MOMENT    RESIDUALS ARE ZERO
 LARGEST INCREMENT OF ROTATION     -1.443E-30   AT NODE          2   DOF  5
 LARGEST CORRECTION TO ROTATION    -4.346E-37   AT NODE          2   DOF  6
          THE MOMENT    EQUILIBRIUM RESPONSE WAS LINEAR IN THIS INCREMENT

 COMPATIBILITY ERRORS:
    TYPE                NUMBER EXCEEDING TOLERANCE  MAXIMUM ERROR        IN ELEMENT
 VOLUMETRIC                          0               -3.196E-08            1302067

 ITERATION SUMMARY FOR THE INCREMENT:   2 TOTAL ITERATIONS, OF WHICH
   1 ARE SEVERE DISCONTINUITY ITERATIONS AND  1 ARE EQUILIBRIUM ITERATIONS.

 TIME INCREMENT COMPLETED  2.000E-02,  FRACTION OF STEP COMPLETED  0.981    
 STEP TIME COMPLETED       0.981    ,  TOTAL TIME COMPLETED         6.98    


  INCREMENT    52 STARTS. ATTEMPT NUMBER  1, TIME INCREMENT  1.937E-02

                    2 SEVERE DISCONTINUITIES OCCURRED DURING INCREMENT ATTEMPT INITIALIZATION.
                    2 POINTS CHANGED TO SLIPPING WITH NEGATIVE CPRESS
 
	UNSYMMETRIC HYBRID DIRECT SPARSE SOLVER RUNNING ON
 	1 HOST x 1 MPI RANK PER HOST x 8 THREADS PER RANK
        NUMBER OF EQUATIONS:  291951
        NUMBER OF RHS:        1
        NUMBER OF FLOPS:      3.177e+12
        SOLVER ELAPSED TIME:  18s
 

 ***WARNING: THE SYSTEM MATRIX HAS 26 NEGATIVE EIGENVALUES.
             EXPLANATIONS ARE SUGGESTED AFTER THE FIRST OCCURRENCE OF THIS MESSAGE.

                    3 SEVERE DISCONTINUITIES OCCURRED DURING THIS ITERATION.
                    3 POINTS CHANGED FROM CLOSED TO OPEN

               CONVERGENCE CHECKS FOR SEVERE DISCONTINUITY ITERATION     1

   MAX. PENETRATION ERROR -12.6094E-09  AT NODE 4802098 OF CONTACT PAIR 
   (LOWER_RIM_SLAVE_SURFACE,LOWER_RIM_MASTER_SURFACE)
   MAX. CONTACT FORCE ERROR -39.2839E-03  AT NODE 202464 OF CONTACT PAIR 
   (UPPER_RIM_SLAVE_SURFACE,UPPER_RIM_MASTER_SURFACE)
          THE CONTACT CONSTRAINT ERRORS ARE WITHIN THE TOLERANCES.

 AVERAGE FORCE                       13.0       TIME AVG. FORCE        12.9    
 LARGEST SCALED RESIDUAL FORCE      3.891E-02   AT NODE     202464   DOF  3
  CORRESPONDING RESIDUAL FORCE      3.891E-02
 LARGEST INCREMENT OF DISP.         5.922E-02   AT NODE    1302559   DOF  3
 LARGEST CORRECTION TO DISP.        1.071E-02   AT NODE    1502553   DOF  3
          DISP.    CORRECTION TOO LARGE COMPARED TO DISP.    INCREMENT

 AVERAGE MOMENT                     5.017E+03   TIME AVG. MOMENT      4.976E+03
 ALL MOMENT    RESIDUALS ARE ZERO
 LARGEST INCREMENT OF ROTATION     -1.443E-30   AT NODE          2   DOF  5
 LARGEST CORRECTION TO ROTATION    -4.564E-32   AT NODE          2   DOF  5
          THE MOMENT    EQUILIBRIUM EQUATIONS HAVE CONVERGED

 COMPATIBILITY ERRORS:
    TYPE                NUMBER EXCEEDING TOLERANCE  MAXIMUM ERROR        IN ELEMENT
 VOLUMETRIC                          0               -3.404E-06            1602067
 
	UNSYMMETRIC HYBRID DIRECT SPARSE SOLVER RUNNING ON
 	1 HOST x 1 MPI RANK PER HOST x 8 THREADS PER RANK
        NUMBER OF EQUATIONS:  291948
        NUMBER OF RHS:        1
        NUMBER OF FLOPS:      3.177e+12
        SOLVER ELAPSED TIME:  19s
 

 ***WARNING: THE SYSTEM MATRIX HAS 26 NEGATIVE EIGENVALUES.
             EXPLANATIONS ARE SUGGESTED AFTER THE FIRST OCCURRENCE OF THIS MESSAGE.

               CONVERGENCE CHECKS FOR EQUILIBRIUM ITERATION     1

   MAX. PENETRATION ERROR -268.125E-12   AT NODE 302464 OF CONTACT PAIR 
   (UPPER_RIM_SLAVE_SURFACE,UPPER_RIM_MASTER_SURFACE)
   MAX. CONTACT FORCE ERROR -98.4786E-09  AT NODE 302464 OF CONTACT PAIR 
   (UPPER_RIM_SLAVE_SURFACE,UPPER_RIM_MASTER_SURFACE)
          THE CONTACT CONSTRAINTS HAVE CONVERGED.

 AVERAGE FORCE                       13.0       TIME AVG. FORCE        12.9    
 LARGEST SCALED RESIDUAL FORCE     -1.429E-03   AT NODE     202465   DOF  3
  CORRESPONDING RESIDUAL FORCE     -1.429E-03
 LARGEST INCREMENT OF DISP.         6.049E-02   AT NODE    1302559   DOF  3
 LARGEST CORRECTION TO DISP.        1.931E-03   AT NODE     202464   DOF  3
 ESTIMATE OF DISP.    CORRECTION    7.025E-05
          FORCE     EQUILIB. ACCEPTED BASED ON SMALL RESIDUAL AND ESTIMATED CORRECTION

 AVERAGE MOMENT                     5.017E+03   TIME AVG. MOMENT      4.976E+03
 ALL MOMENT    RESIDUALS ARE ZERO
 LARGEST INCREMENT OF ROTATION     -1.443E-30   AT NODE          2   DOF  5
 LARGEST CORRECTION TO ROTATION     5.285E-37   AT NODE          1   DOF  4
          THE MOMENT    EQUILIBRIUM RESPONSE WAS LINEAR IN THIS INCREMENT

 COMPATIBILITY ERRORS:
    TYPE                NUMBER EXCEEDING TOLERANCE  MAXIMUM ERROR        IN ELEMENT
 VOLUMETRIC                          0               -7.059E-08            1402067

 ITERATION SUMMARY FOR THE INCREMENT:   2 TOTAL ITERATIONS, OF WHICH
   1 ARE SEVERE DISCONTINUITY ITERATIONS AND  1 ARE EQUILIBRIUM ITERATIONS.

 TIME INCREMENT COMPLETED  1.937E-02,  FRACTION OF STEP COMPLETED   1.00    
 STEP TIME COMPLETED        1.00    ,  TOTAL TIME COMPLETED         7.00    

     RESTART INFORMATION WRITTEN IN STEP   7  AFTER INCREMENT    52


          THE ANALYSIS HAS BEEN COMPLETED



     ANALYSIS SUMMARY:
     TOTAL OF        106  INCREMENTS
                      13  CUTBACKS IN AUTOMATIC INCREMENTATION
                     466  ITERATIONS INCLUDING CONTACT ITERATIONS IF PRESENT
                     466  PASSES THROUGH THE EQUATION SOLVER OF WHICH 
                     466  INVOLVE MATRIX DECOMPOSITION, INCLUDING
                       0  DECOMPOSITION(S) OF THE MASS MATRIX
                       1  REORDERING OF EQUATIONS TO MINIMIZE WAVEFRONT
                       0  ADDITIONAL RESIDUAL EVALUATIONS FOR LINE SEARCHES
                       0  ADDITIONAL OPERATOR EVALUATIONS FOR LINE SEARCHES
                       3  WARNING MESSAGES DURING USER INPUT PROCESSING
                     302  WARNING MESSAGES DURING ANALYSIS
                       0  ANALYSIS WARNINGS ARE NUMERICAL PROBLEM MESSAGES
                     138  ANALYSIS WARNINGS ARE NEGATIVE EIGENVALUE MESSAGES
                       0  ERROR MESSAGES



     JOB TIME SUMMARY
       USER TIME (SEC)      =     2.37E+04
       SYSTEM TIME (SEC)    =     4.06E+02
       TOTAL CPU TIME (SEC) =     2.41E+04
       WALLCLOCK TIME (SEC) =         6333
       MEMORY PEAK (GB)     =           11
