1

   Abaqus 2024.HF5                                  Date 14-Oct-2025   Time 14:30:12
   For use by APOLLO TYRES LTD under license from Dassault Systemes or its subsidiary.



                         The Abaqus Software is a product of:

                           Dassault Systemes Americas Corp.
                           1301 Atwood Avenue, Suite 101W
                              Johnston, RI 02919, USA
 


                   The Abaqus Software is available only under license
                   from Dassault Systemes or its subsidiary and may be
                   used or reproduced only in accordance with the terms
                   of such license.
 
                          On machine 1040SIMW13 
                          you are authorized to run
                          Abaqus/Standard until 29-Sep-2026

                          Your site id is: 200000000009793 


 
                    For assistance or any other information you may
                    obtain contact information for your local office
                    from the world wide web at:

                      https://www.3ds.com/products-services/simulia/services-support/

 
                * * * * * * * * * * * * * * * * * * * * * * * * * * * * * * 
                *                                                         * 
                *                   *****************                     * 
                *                   *  N O T I C E  *                     * 
                *                   *****************                     * 
                *                                                         * 
                *                                                         * 
                *                     Abaqus 2024.HF5                     * 
                *                                                         * 
                *       BUILD ID: 2024_09_25-22.49.41 RELr426 191541      * 
                *                                                         * 
                *                                                         * 
                *  Please make sure you are using                         * 
                *  release Abaqus 2024.HF5 manuals                        * 
                *  plus the notes accompanying this release.              * 
                *                                                         * 
                *                                                         * 
                *                                                         * 
                *                                                         * 
                * * * * * * * * * * * * * * * * * * * * * * * * * * * * * * 


 



     PROCESSING PART, INSTANCE, AND ASSEMBLY INFORMATION
   *******************************************************


     END PROCESSING PART, INSTANCE, AND ASSEMBLY INFORMATION
   ***********************************************************

1

   Abaqus 2024.HF5                                  Date 14-Oct-2025   Time 14:30:12
   For use by APOLLO TYRES LTD under license from Dassault Systemes or its subsidiary.

                                                                                     

                                      P A R A M E T E R   I N T E R P R E T A T I O N


                     
                     ***COMMENT: STARTING PARAMETER EVALUATION
                     
                     ***ERROR:   INCORRECT SYNTAX
     LINE     5                   >>> 2deg_RP1=speed*cos2
                     
                     ***ERROR:   INCORRECT SYNTAX
                                  >>> 2deg_RP2=speed*sin2
                     
     LINE    10      ***ERROR:   INCORRECT SYNTAX
                                  >>> 4deg_RP1=speed*cos4
                     
                     ***ERROR:   INCORRECT SYNTAX
                                  >>> 4deg_RP2=speed*sin4
     LINE    15      
                     ***ERROR:   INCORRECT SYNTAX
                                  >>> 6deg_RP1=speed*cos6
                     
                     ***ERROR:   INCORRECT SYNTAX
     LINE    20                   >>> 6deg_RP2=speed*sin6
                     
                     ***ERROR:   INCORRECT SYNTAX
                                  >>> 8deg_RP1=speed*cos8
                     
     LINE    25      ***ERROR:   INCORRECT SYNTAX
                                  >>> 8deg_RP2=speed*sin8
                     
                     ***ERROR:   INCORRECT SYNTAX
                                  >>> 10deg_RP1=speed*cos10
     LINE    30      
                     ***ERROR:   INCORRECT SYNTAX
                                  >>> 10deg_RP2=speed*sin10
                     
                     ***ERROR:   INCORRECT SYNTAX
     LINE    35                   >>> 12deg_RP1=speed*cos12
                     
                     ***ERROR:   INCORRECT SYNTAX
                                  >>> 12deg_RP2=speed*sin12
                     
     LINE    40      ***ERROR:   INCORRECT SYNTAX
                                  >>> 14deg_RP1=speed*cos14
                     
                     ***ERROR:   INCORRECT SYNTAX
                                  >>> 14deg_RP2=speed*sin14
     LINE    45      
                     ***ERROR:   INCORRECT SYNTAX
                                  >>> 16deg_RP1=speed*cos16
                     
                     ***ERROR:   INCORRECT SYNTAX
     LINE    50                   >>> 16deg_RP2=speed*sin16
                     
                     ***ERROR:   EVALUATION OF PARAMETERS FAILED
                     
                     ***COMMENT: STARTING PARAMETER SUBSTITUTION
     LINE    55      
                     ***COMMENT: EVALUATION AND SUBSTITUTION OF PARAMETERS COMPLETED
                    --------------------------------------------------------------------------------
                        5   10   15   20   25   30   35   40   45   50   55   60   65   70   75   80
                    --------------------------------------------------------------------------------



     OPTIONS BEING PROCESSED
   ***************************


  *HEADING
          revolve analysis with Pressure 1 and load 1                                                                                                                                                                                                                                                                                                                                                                                                                                                                                     
  *HEADING
          Project name:                                                                                                                                                                                                                                                                                                                                                                                                                                                                                                                   
  *SYMMETRIC MODEL GENERATION, REVOLVE, NODE=100000, ELEMENT=100000
   START OF SYMMETRIC MODEL GENERATION


     READING RESTART FILE GENERATED ON RELEASE  6.24-6       DATE  14-Oct-20     TIME  14:30:01

   THE TOLERANCE USED IN SYMMETRIC MODEL GENERATION IS    0.0339


 ***ERROR: REQUESTED RESTART FRAME CAN NOT BE FOUND. PLEASE CHECK THE RESTART 
           STEP.





          THE PROGRAM HAS DISCOVERED     1 FATAL ERRORS

               ** EXECUTION IS TERMINATED **



                              END OF USER INPUT PROCESSING



     JOB TIME SUMMARY
       USER TIME (SEC)      =     0.10    
       SYSTEM TIME (SEC)    =     0.10    
       TOTAL CPU TIME (SEC) =     0.20    
       WALLCLOCK TIME (SEC) =            0
