 Abaqus/Standard 2024.HF5                  DATE 16-Oct-2025 TIME 09:25:25
 SUMMARY OF JOB INFORMATION:
 STEP  INC ATT SEVERE EQUIL TOTAL  TOTAL      STEP       INC OF       DOF    IF
               DISCON ITERS ITERS  TIME/    TIME/LPF    TIME/LPF    MONITOR RIKS
               ITERS               FREQ
   1     1   1     0     1     1  0.100      0.100      0.1000    
   1     2   1     0     1     1  0.200      0.200      0.1000    
   1     3   1     0     1     1  0.350      0.350      0.1500    
   1     4   1     0     1     1  0.575      0.575      0.2250    
   1     5   1     0     1     1  0.913      0.913      0.3375    
   1     6   1     0     1     1  1.00       1.00       0.08750   
   2     1   1     0     4     4  1.10       0.100      0.1000    
   2     2   1     0     2     2  1.20       0.200      0.1000    
   2     3   1     0     2     2  1.35       0.350      0.1500    
   2     4   1     0     3     3  1.58       0.575      0.2250    
   2     5   1     0     3     3  1.91       0.913      0.3375    
   2     6   1     0     2     2  2.00       1.00       0.08750   
   3     1   1     0     1     1  2.05       0.0500     0.05000   
   3     2   1     0     1     1  2.10       0.100      0.05000   
   3     3   1     1     2     3  2.17       0.175      0.07500   
   3     4   1     0     5     5  2.29       0.288      0.1125    
   3     5   1U    0     8     8  2.29       0.288      0.1125    
   3     5   2     0     3     3  2.32       0.316      0.02813   
   3     6   1     0     3     3  2.34       0.344      0.02813   
   3     7   1     0     2     2  2.39       0.386      0.04219   
   3     8   1     0     3     3  2.45       0.449      0.06328   
   3     9   1     0     3     3  2.54       0.544      0.09492   
   3    10   1U    7     8    15  2.54       0.544      0.1424    
   3    10   2     0     3     3  2.58       0.580      0.03560   
   3    11   1     1     2     3  2.63       0.633      0.05339   
   3    12   1U    0     8     8  2.63       0.633      0.08009   
   3    12   2     0     2     2  2.65       0.653      0.02002   
   3    13   1     0     1     1  2.68       0.683      0.03003   
   3    14   1     0     3     3  2.73       0.728      0.04505   
   3    15   1U    0     8     8  2.73       0.728      0.06758   
   3    15   2     0     2     2  2.75       0.745      0.01689   
   3    16   1     0     1     1  2.77       0.770      0.02534   
   3    17   1     0     2     2  2.81       0.808      0.03801   
   3    18   1     0     3     3  2.87       0.866      0.05702   
   3    19   1     0     5     5  2.95       0.951      0.08553   
   3    20   1     1     2     3  3.00       1.00       0.04897   
   4     1   1U    2     0     2  3.00       0.00       0.1000    
   4     1   2U    1     0     1  3.00       0.00       0.02500   
   4     1   3U    0     9     9  3.00       0.00       0.006250  
   4     1   4     0     3     3  3.00       0.00156    0.001563  
   4     2   1     0     2     2  3.00       0.00313    0.001563  
   4     3   1     0     2     2  3.01       0.00547    0.002344  
   4     4   1     1     7     8  3.01       0.00898    0.003516  
   4     5   1     0     3     3  3.01       0.0125     0.003516  
   4     6   1     0     1     1  3.02       0.0160     0.003516  
   4     7   1     0     3     3  3.02       0.0213     0.005273  
   4     8   1     0     3     3  3.03       0.0292     0.007910  
   4     9   1     1     2     3  3.04       0.0411     0.01187   
   4    10   1     1     5     6  3.06       0.0589     0.01780   
   4    11   1     0     3     3  3.08       0.0767     0.01780   
   4    12   1     1     3     4  3.09       0.0945     0.01780   
   4    13   1     0     4     4  3.12       0.121      0.02670   
   4    14   1     0     3     3  3.16       0.161      0.04005   
   4    15   1     1     3     4  3.22       0.221      0.06007   
   4    16   1     1     3     4  3.31       0.311      0.09010   
   4    17   1     0     3     3  3.45       0.447      0.1352    
   4    18   1     2     2     4  3.65       0.649      0.2027    
   4    19   1U    2     8    10  3.65       0.649      0.3041    
   4    19   2     1     2     3  3.73       0.725      0.07602   
   4    20   1     0     2     2  3.84       0.839      0.1140    
   4    21   1     1     2     3  4.00       1.00       0.1607    
                          
 THE ANALYSIS HAS COMPLETED SUCCESSFULLY
