1

   Abaqus 2024.HF5                                  Date 16-Oct-2025   Time 09:25:24
   For use by APOLLO TYRES LTD under license from Dassault Systemes or its subsidiary.

 lift equation                                                                   
 POSITIONING_RIM                                                                 
 STEP    1     INCREMENT     1     STEP TIME    0.00    


                        S T E P       1     S T A T I C   A N A L Y S I S


          POSITIONING_RIM                                                                 

     AUTOMATIC TIME CONTROL WITH -
          A SUGGESTED INITIAL TIME INCREMENT OF                0.100    
          AND A TOTAL TIME PERIOD OF                            1.00    
          THE MINIMUM TIME INCREMENT ALLOWED IS                1.000E-05
          THE MAXIMUM TIME INCREMENT ALLOWED IS                 1.00    

     LINEAR EQUATION SOLVER TYPE         DIRECT SPARSE

 CONVERGENCE TOLERANCE PARAMETERS FOR FORCE    
     CRITERION FOR RESIDUAL FORCE     FOR A NONLINEAR PROBLEM          5.000E-03
     CRITERION FOR DISP.    CORRECTION IN A NONLINEAR PROBLEM          1.000E-02
     INITIAL VALUE OF TIME AVERAGE FORCE                               1.000E-02
     AVERAGE FORCE     IS TIME AVERAGE FORCE    
     ALTERNATE CRIT. FOR RESIDUAL FORCE     FOR A NONLINEAR PROBLEM    2.000E-02
     CRITERION FOR ZERO FORCE     RELATIVE TO TIME AVRG. FORCE         1.000E-05
     CRITERION FOR RESIDUAL FORCE     WHEN THERE IS ZERO FLUX          1.000E-05
     CRITERION FOR DISP.    CORRECTION WHEN THERE IS ZERO FLUX         1.000E-03
     CRITERION FOR RESIDUAL FORCE     FOR A LINEAR INCREMENT           1.000E-08
     FIELD CONVERSION RATIO                                             1.00    
     CRITERION FOR ZERO FORCE     REL. TO TIME AVRG. MAX. FORCE        1.000E-05
     CRITERION FOR ZERO DISP.    RELATIVE TO CHARACTERISTIC LENGTH     1.000E-08

 CONVERGENCE TOLERANCE PARAMETERS FOR MOMENT   
     CRITERION FOR RESIDUAL MOMENT    FOR A NONLINEAR PROBLEM          5.000E-03
     CRITERION FOR ROTATION CORRECTION IN A NONLINEAR PROBLEM          1.000E-02
     INITIAL VALUE OF TIME AVERAGE MOMENT                              1.000E-02
     AVERAGE MOMENT    IS TIME AVERAGE MOMENT   
     ALTERNATE CRIT. FOR RESIDUAL MOMENT    FOR A NONLINEAR PROBLEM    2.000E-02
     CRITERION FOR ZERO MOMENT    RELATIVE TO TIME AVRG. MOMENT        1.000E-05
     CRITERION FOR RESIDUAL MOMENT    WHEN THERE IS ZERO FLUX          1.000E-05
     CRITERION FOR ROTATION CORRECTION WHEN THERE IS ZERO FLUX         1.000E-03
     CRITERION FOR RESIDUAL MOMENT    FOR A LINEAR INCREMENT           1.000E-08
     FIELD CONVERSION RATIO                                             1.00    
     CRITERION FOR ZERO MOMENT    REL. TO TIME AVRG. MAX. MOMENT       1.000E-05

     VOLUMETRIC STRAIN COMPATIBILITY TOLERANCE FOR HYBRID SOLIDS       1.000E-05
     AXIAL STRAIN COMPATIBILITY TOLERANCE FOR HYBRID BEAMS             1.000E-05
     TRANS. SHEAR STRAIN COMPATIBILITY TOLERANCE FOR HYBRID BEAMS      1.000E-05
     SOFT CONTACT CONSTRAINT COMPATIBILITY TOLERANCE FOR P>P0          5.000E-03
     SOFT CONTACT CONSTRAINT COMPATIBILITY TOLERANCE FOR P=0.0         0.100    
     CONTACT FORCE ERROR TOLERANCE FOR CONVERT SDI=YES                 1.00    
     DISPLACEMENT COMPATIBILITY TOLERANCE FOR DCOUP ELEMENTS           1.000E-05
     ROTATION COMPATIBILITY TOLERANCE FOR DCOUP ELEMENTS               1.000E-05

 EQUILIBRIUM WILL BE CHECKED FOR SEVERE DISCONTINUITY ITERATIONS

 TIME INCREMENTATION CONTROL PARAMETERS:
     FIRST EQUILIBRIUM ITERATION FOR CONSECUTIVE DIVERGENCE CHECK              4
     EQUILIBRIUM ITERATION AT WHICH LOG. CONVERGENCE RATE CHECK BEGINS         8
     EQUILIBRIUM ITERATION AFTER WHICH ALTERNATE RESIDUAL IS USED              9
     MAXIMUM EQUILIBRIUM ITERATIONS ALLOWED                                   16
     EQUILIBRIUM ITERATION COUNT FOR CUT-BACK IN NEXT INCREMENT               10
     MAXIMUM EQUILIB. ITERS IN TWO INCREMENTS FOR TIME INCREMENT INCREASE      4
     MAXIMUM ITERATIONS FOR SEVERE DISCONTINUITIES                            50
     MAXIMUM ATTEMPTS ALLOWED IN AN INCREMENT                                  5
     MAXIMUM DISCON. ITERS IN TWO INCREMENTS FOR TIME INCREMENT INCREASE      50
     MAXIMUM CONTACT AUGMENTATIONS FOR *SURFACE BEHAVIOR,AUGMENTED LAGRANGE   50
     CUT-BACK FACTOR AFTER DIVERGENCE                                 0.2500    
     CUT-BACK FACTOR FOR TOO SLOW CONVERGENCE                         0.5000    
     CUT-BACK FACTOR AFTER TOO MANY EQUILIBRIUM ITERATIONS            0.7500    
     CUT-BACK FACTOR AFTER TOO MANY SEVERE DISCONTINUITY ITERATIONS   0.2500    
     CUT-BACK FACTOR AFTER PROBLEMS IN ELEMENT ASSEMBLY               0.2500    
     INCREASE FACTOR AFTER TWO INCREMENTS THAT CONVERGE QUICKLY        1.500    
     MAX. TIME INCREMENT INCREASE FACTOR ALLOWED                       1.500    
     MAX. TIME INCREMENT INCREASE FACTOR ALLOWED (DYNAMICS)            1.250    
     MAX. TIME INCREMENT INCREASE FACTOR ALLOWED (DIFFUSION)           2.000    
     MINIMUM TIME INCREMENT RATIO FOR EXTRAPOLATION TO OCCUR          0.1000    
     MAX. RATIO OF TIME INCREMENT TO STABILITY LIMIT                   1.000    
     FRACTION OF STABILITY LIMIT FOR NEW TIME INCREMENT               0.9500    
     TIME INCREMENT INCREASE FACTOR BEFORE A TIME POINT                1.000    

 CONTACT CONTROLS APPLIED TO ALL CONTACT PAIRS:
     GLOBAL STABILIZATION CONTROL IS NOT USED
     RELATIVE PENETRATION TOLERANCE FOR AUGMENTED LAGRANGE CONTACT:
          FINITE-SLIDING SURFACE-TO-SURFACE                            5.000E-02
          OTHERWISE                                                    1.000E-03

          PRINT OF INCREMENT NUMBER, TIME, ETC., EVERY    1  INCREMENTS

     THE MAXIMUM NUMBER OF INCREMENTS IN THIS STEP IS                     100

          LARGE DISPLACEMENT THEORY WILL BE USED

     LINEAR EXTRAPOLATION WILL BE USED

     CHARACTERISTIC ELEMENT LENGTH      3.39    

     DETAILS REGARDING ACTUAL SOLUTION WAVEFRONT REQUESTED

     DETAILED OUTPUT OF DIAGNOSTICS TO DATABASE REQUESTED

     PRINT OF INCREMENT NUMBER, TIME, ETC., TO THE MESSAGE FILE EVERY     1  INCREMENTS

     COLLECTING MODEL CONSTRAINT INFORMATION FOR OVERCONSTRAINT CHECKS

     COLLECTING STEP CONSTRAINT INFORMATION FOR OVERCONSTRAINT CHECKS


  INCREMENT     1 STARTS. ATTEMPT NUMBER  1, TIME INCREMENT  0.100    

 ***WARNING: THERE ARE 3 UNCONNECTED REGIONS IN THE MODEL.

 ***NOTE: SFM TYPE SURFACE ELEMENTS USED TO DEFINE CONTACT SURFACES NOT PART OF 
          A RIGID BODY MAY INCREASE THE NUMBER OF UNCONNECTED REGIONS REPORTED.
 
	SYMMETRIC PURE THREAD-BASED DIRECT SPARSE SOLVER RUNNING ON
 	1 HOST x 1 MPI RANK PER HOST x 1 THREAD PER RANK
        NUMBER OF EQUATIONS:  2906
        NUMBER OF RHS:        1
        NUMBER OF FLOPS:      4.765e+06
        SOLVER ELAPSED TIME:  10ms

               CONVERGENCE CHECKS FOR EQUILIBRIUM ITERATION     1


 AVERAGE FORCE                      5.367E-13   TIME AVG. FORCE       1.000E-02
 LARGEST SCALED RESIDUAL FORCE     -3.265E-11   AT NODE       2368   DOF  2
  CORRESPONDING RESIDUAL FORCE     -3.265E-11
 LARGEST INCREMENT OF DISP.         -6.00       AT NODE          1   DOF  2
 LARGEST CORRECTION TO DISP.        -6.00       AT NODE          1   DOF  2
          THERE IS ZERO FORCE     EVERYWHERE
 

 ***WARNING: THERE IS ZERO FORCE EVERYWHERE IN THE MODEL BASED ON THE DEFAULT 
             CRITERION. PLEASE CHECK THE VALUE OF THE AVERAGE FORCE DURING THE 
             CURRENT ITERATION TO VERIFY THAT THE FORCE IS SMALL ENOUGH TO BE 
             TREATED AS ZERO. IF NOT, PLEASE USE THE SOLUTION CONTROLS TO RESET 
             THE CRITERION FOR ZERO FORCE.

 AVERAGE MOMENT                     8.017E-11   TIME AVG. MOMENT      3.386E-02
                                                (FROM FORCE     FIELD)
 LARGEST SCALED RESIDUAL MOMENT     2.331E-08   AT NODE       2367   DOF  5
  CORRESPONDING RESIDUAL MOMENT     2.331E-08
 LARGEST INCREMENT OF ROTATION      5.644E-18   AT NODE       2256   DOF  5
 LARGEST CORRECTION TO ROTATION     5.644E-18   AT NODE       2256   DOF  5
          THERE IS ZERO MOMENT    EVERYWHERE

 COMPATIBILITY ERRORS:
    TYPE                NUMBER EXCEEDING TOLERANCE  MAXIMUM ERROR        IN ELEMENT
 VOLUMETRIC                          0                1.110E-16               2600

 ITERATION SUMMARY FOR THE INCREMENT:   1 TOTAL ITERATIONS, OF WHICH
   0 ARE SEVERE DISCONTINUITY ITERATIONS AND  1 ARE EQUILIBRIUM ITERATIONS.

 TIME INCREMENT COMPLETED  0.100    ,  FRACTION OF STEP COMPLETED  0.100    
 STEP TIME COMPLETED       0.100    ,  TOTAL TIME COMPLETED        0.100    


  INCREMENT     2 STARTS. ATTEMPT NUMBER  1, TIME INCREMENT  0.100    
 
	SYMMETRIC PURE THREAD-BASED DIRECT SPARSE SOLVER RUNNING ON
 	1 HOST x 1 MPI RANK PER HOST x 1 THREAD PER RANK
        NUMBER OF EQUATIONS:  2906
        NUMBER OF RHS:        1
        NUMBER OF FLOPS:      4.765e+06
        SOLVER ELAPSED TIME:  16ms

               CONVERGENCE CHECKS FOR EQUILIBRIUM ITERATION     1


 AVERAGE FORCE                      2.027E-10   TIME AVG. FORCE       1.000E-02
 LARGEST SCALED RESIDUAL FORCE     -1.646E-08   AT NODE       2108   DOF  1
  CORRESPONDING RESIDUAL FORCE     -1.646E-08
 LARGEST INCREMENT OF DISP.         -6.00       AT NODE          1   DOF  2
 LARGEST CORRECTION TO DISP.       -9.040E-14   AT NODE       2491   DOF  2
          THERE IS ZERO FORCE     EVERYWHERE
 

 ***WARNING: THERE IS ZERO FORCE EVERYWHERE IN THE MODEL BASED ON THE DEFAULT 
             CRITERION. PLEASE CHECK THE VALUE OF THE AVERAGE FORCE DURING THE 
             CURRENT ITERATION TO VERIFY THAT THE FORCE IS SMALL ENOUGH TO BE 
             TREATED AS ZERO. IF NOT, PLEASE USE THE SOLUTION CONTROLS TO RESET 
             THE CRITERION FOR ZERO FORCE.

 AVERAGE MOMENT                     7.487E-10   TIME AVG. MOMENT      3.386E-02
                                                (FROM FORCE     FIELD)
 LARGEST SCALED RESIDUAL MOMENT     3.360E-07   AT NODE       2627   DOF  5
  CORRESPONDING RESIDUAL MOMENT     3.360E-07
 LARGEST INCREMENT OF ROTATION     -3.060E-18   AT NODE       2236   DOF  5
 LARGEST CORRECTION TO ROTATION    -5.526E-18   AT NODE       2257   DOF  5
          THERE IS ZERO MOMENT    EVERYWHERE

 COMPATIBILITY ERRORS:
    TYPE                NUMBER EXCEEDING TOLERANCE  MAXIMUM ERROR        IN ELEMENT
 VOLUMETRIC                          0               -5.745E-14               2358
          TIME INCREMENT MAY NOW INCREASE TO    0.150    

 ITERATION SUMMARY FOR THE INCREMENT:   1 TOTAL ITERATIONS, OF WHICH
   0 ARE SEVERE DISCONTINUITY ITERATIONS AND  1 ARE EQUILIBRIUM ITERATIONS.

 TIME INCREMENT COMPLETED  0.100    ,  FRACTION OF STEP COMPLETED  0.200    
 STEP TIME COMPLETED       0.200    ,  TOTAL TIME COMPLETED        0.200    


  INCREMENT     3 STARTS. ATTEMPT NUMBER  1, TIME INCREMENT  0.150    
 
	SYMMETRIC PURE THREAD-BASED DIRECT SPARSE SOLVER RUNNING ON
 	1 HOST x 1 MPI RANK PER HOST x 1 THREAD PER RANK
        NUMBER OF EQUATIONS:  2906
        NUMBER OF RHS:        1
        NUMBER OF FLOPS:      4.765e+06
        SOLVER ELAPSED TIME:  18ms

               CONVERGENCE CHECKS FOR EQUILIBRIUM ITERATION     1


 AVERAGE FORCE                      1.169E-09   TIME AVG. FORCE       1.000E-02
 LARGEST SCALED RESIDUAL FORCE      2.369E-08   AT NODE       2550   DOF  1
  CORRESPONDING RESIDUAL FORCE      2.369E-08
 LARGEST INCREMENT OF DISP.         -9.00       AT NODE          1   DOF  2
 LARGEST CORRECTION TO DISP.       -2.157E-13   AT NODE       2382   DOF  1
          THERE IS ZERO FORCE     EVERYWHERE
 

 ***WARNING: THERE IS ZERO FORCE EVERYWHERE IN THE MODEL BASED ON THE DEFAULT 
             CRITERION. PLEASE CHECK THE VALUE OF THE AVERAGE FORCE DURING THE 
             CURRENT ITERATION TO VERIFY THAT THE FORCE IS SMALL ENOUGH TO BE 
             TREATED AS ZERO. IF NOT, PLEASE USE THE SOLUTION CONTROLS TO RESET 
             THE CRITERION FOR ZERO FORCE.

 AVERAGE MOMENT                     1.161E-08   TIME AVG. MOMENT      3.386E-02
                                                (FROM FORCE     FIELD)
 LARGEST SCALED RESIDUAL MOMENT    -1.402E-06   AT NODE       2252   DOF  5
  CORRESPONDING RESIDUAL MOMENT    -1.402E-06
 LARGEST INCREMENT OF ROTATION      1.106E-16   AT NODE       2389   DOF  5
 LARGEST CORRECTION TO ROTATION     1.135E-16   AT NODE       2389   DOF  5
          ALL ROTATION CORRECTIONS ARE ZERO

 COMPATIBILITY ERRORS:
    TYPE                NUMBER EXCEEDING TOLERANCE  MAXIMUM ERROR        IN ELEMENT
 VOLUMETRIC                          0                9.837E-14               2045
          TIME INCREMENT MAY NOW INCREASE TO    0.225    

 ITERATION SUMMARY FOR THE INCREMENT:   1 TOTAL ITERATIONS, OF WHICH
   0 ARE SEVERE DISCONTINUITY ITERATIONS AND  1 ARE EQUILIBRIUM ITERATIONS.

 TIME INCREMENT COMPLETED  0.150    ,  FRACTION OF STEP COMPLETED  0.350    
 STEP TIME COMPLETED       0.350    ,  TOTAL TIME COMPLETED        0.350    


  INCREMENT     4 STARTS. ATTEMPT NUMBER  1, TIME INCREMENT  0.225    
 
	SYMMETRIC PURE THREAD-BASED DIRECT SPARSE SOLVER RUNNING ON
 	1 HOST x 1 MPI RANK PER HOST x 1 THREAD PER RANK
        NUMBER OF EQUATIONS:  2906
        NUMBER OF RHS:        1
        NUMBER OF FLOPS:      4.765e+06
        SOLVER ELAPSED TIME:  14ms

               CONVERGENCE CHECKS FOR EQUILIBRIUM ITERATION     1


 AVERAGE FORCE                      1.757E-09   TIME AVG. FORCE       1.000E-02
 LARGEST SCALED RESIDUAL FORCE      3.119E-08   AT NODE       2094   DOF  1
  CORRESPONDING RESIDUAL FORCE      3.119E-08
 LARGEST INCREMENT OF DISP.         -13.5       AT NODE          1   DOF  2
 LARGEST CORRECTION TO DISP.       -1.082E-12   AT NODE       2156   DOF  2
          THERE IS ZERO FORCE     EVERYWHERE
 

 ***WARNING: THERE IS ZERO FORCE EVERYWHERE IN THE MODEL BASED ON THE DEFAULT 
             CRITERION. PLEASE CHECK THE VALUE OF THE AVERAGE FORCE DURING THE 
             CURRENT ITERATION TO VERIFY THAT THE FORCE IS SMALL ENOUGH TO BE 
             TREATED AS ZERO. IF NOT, PLEASE USE THE SOLUTION CONTROLS TO RESET 
             THE CRITERION FOR ZERO FORCE.

 AVERAGE MOMENT                     1.431E-08   TIME AVG. MOMENT      3.386E-02
                                                (FROM FORCE     FIELD)
 LARGEST SCALED RESIDUAL MOMENT     1.539E-06   AT NODE       2283   DOF  5
  CORRESPONDING RESIDUAL MOMENT     1.539E-06
 LARGEST INCREMENT OF ROTATION      1.334E-16   AT NODE       2256   DOF  5
 LARGEST CORRECTION TO ROTATION    -1.904E-16   AT NODE       2389   DOF  5
          ALL ROTATION CORRECTIONS ARE ZERO

 COMPATIBILITY ERRORS:
    TYPE                NUMBER EXCEEDING TOLERANCE  MAXIMUM ERROR        IN ELEMENT
 VOLUMETRIC                          0               -9.148E-14               2641
          TIME INCREMENT MAY NOW INCREASE TO    0.338    

 ITERATION SUMMARY FOR THE INCREMENT:   1 TOTAL ITERATIONS, OF WHICH
   0 ARE SEVERE DISCONTINUITY ITERATIONS AND  1 ARE EQUILIBRIUM ITERATIONS.

 TIME INCREMENT COMPLETED  0.225    ,  FRACTION OF STEP COMPLETED  0.575    
 STEP TIME COMPLETED       0.575    ,  TOTAL TIME COMPLETED        0.575    


  INCREMENT     5 STARTS. ATTEMPT NUMBER  1, TIME INCREMENT  0.338    
 
	SYMMETRIC PURE THREAD-BASED DIRECT SPARSE SOLVER RUNNING ON
 	1 HOST x 1 MPI RANK PER HOST x 1 THREAD PER RANK
        NUMBER OF EQUATIONS:  2906
        NUMBER OF RHS:        1
        NUMBER OF FLOPS:      4.765e+06
        SOLVER ELAPSED TIME:  19ms

               CONVERGENCE CHECKS FOR EQUILIBRIUM ITERATION     1


 AVERAGE FORCE                      1.602E-09   TIME AVG. FORCE       1.000E-02
 LARGEST SCALED RESIDUAL FORCE     -2.610E-08   AT NODE       2489   DOF  1
  CORRESPONDING RESIDUAL FORCE     -2.610E-08
 LARGEST INCREMENT OF DISP.         -20.2       AT NODE          1   DOF  2
 LARGEST CORRECTION TO DISP.        1.813E-12   AT NODE       2127   DOF  2
          THERE IS ZERO FORCE     EVERYWHERE
 

 ***WARNING: THERE IS ZERO FORCE EVERYWHERE IN THE MODEL BASED ON THE DEFAULT 
             CRITERION. PLEASE CHECK THE VALUE OF THE AVERAGE FORCE DURING THE 
             CURRENT ITERATION TO VERIFY THAT THE FORCE IS SMALL ENOUGH TO BE 
             TREATED AS ZERO. IF NOT, PLEASE USE THE SOLUTION CONTROLS TO RESET 
             THE CRITERION FOR ZERO FORCE.

 AVERAGE MOMENT                     9.944E-09   TIME AVG. MOMENT      3.386E-02
                                                (FROM FORCE     FIELD)
 LARGEST SCALED RESIDUAL MOMENT    -8.938E-07   AT NODE       2697   DOF  5
  CORRESPONDING RESIDUAL MOMENT    -8.938E-07
 LARGEST INCREMENT OF ROTATION      1.257E-16   AT NODE       2654   DOF  5
 LARGEST CORRECTION TO ROTATION    -2.863E-16   AT NODE       2256   DOF  5
          ALL ROTATION CORRECTIONS ARE ZERO

 COMPATIBILITY ERRORS:
    TYPE                NUMBER EXCEEDING TOLERANCE  MAXIMUM ERROR        IN ELEMENT
 VOLUMETRIC                          0               -9.004E-14               2444

 ITERATION SUMMARY FOR THE INCREMENT:   1 TOTAL ITERATIONS, OF WHICH
   0 ARE SEVERE DISCONTINUITY ITERATIONS AND  1 ARE EQUILIBRIUM ITERATIONS.

 TIME INCREMENT COMPLETED  0.338    ,  FRACTION OF STEP COMPLETED  0.913    
 STEP TIME COMPLETED       0.913    ,  TOTAL TIME COMPLETED        0.913    


  INCREMENT     6 STARTS. ATTEMPT NUMBER  1, TIME INCREMENT  8.750E-02
 
	SYMMETRIC PURE THREAD-BASED DIRECT SPARSE SOLVER RUNNING ON
 	1 HOST x 1 MPI RANK PER HOST x 1 THREAD PER RANK
        NUMBER OF EQUATIONS:  2906
        NUMBER OF RHS:        1
        NUMBER OF FLOPS:      4.765e+06
        SOLVER ELAPSED TIME:  11ms

               CONVERGENCE CHECKS FOR EQUILIBRIUM ITERATION     1


 AVERAGE FORCE                      1.748E-09   TIME AVG. FORCE       1.000E-02
 LARGEST SCALED RESIDUAL FORCE      4.850E-08   AT NODE       2475   DOF  1
  CORRESPONDING RESIDUAL FORCE      4.850E-08
 LARGEST INCREMENT OF DISP.         -5.25       AT NODE          1   DOF  2
 LARGEST CORRECTION TO DISP.        6.948E-13   AT NODE       2520   DOF  2
          THERE IS ZERO FORCE     EVERYWHERE
 

 ***WARNING: THERE IS ZERO FORCE EVERYWHERE IN THE MODEL BASED ON THE DEFAULT 
             CRITERION. PLEASE CHECK THE VALUE OF THE AVERAGE FORCE DURING THE 
             CURRENT ITERATION TO VERIFY THAT THE FORCE IS SMALL ENOUGH TO BE 
             TREATED AS ZERO. IF NOT, PLEASE USE THE SOLUTION CONTROLS TO RESET 
             THE CRITERION FOR ZERO FORCE.

 AVERAGE MOMENT                     1.190E-08   TIME AVG. MOMENT      3.386E-02
                                                (FROM FORCE     FIELD)
 LARGEST SCALED RESIDUAL MOMENT    -1.226E-06   AT NODE       2245   DOF  5
  CORRESPONDING RESIDUAL MOMENT    -1.226E-06
 LARGEST INCREMENT OF ROTATION     -8.939E-17   AT NODE       2633   DOF  5
 LARGEST CORRECTION TO ROTATION    -1.053E-16   AT NODE       2633   DOF  5
          ALL ROTATION CORRECTIONS ARE ZERO

 COMPATIBILITY ERRORS:
    TYPE                NUMBER EXCEEDING TOLERANCE  MAXIMUM ERROR        IN ELEMENT
 VOLUMETRIC                          0                1.102E-13               2441

 ITERATION SUMMARY FOR THE INCREMENT:   1 TOTAL ITERATIONS, OF WHICH
   0 ARE SEVERE DISCONTINUITY ITERATIONS AND  1 ARE EQUILIBRIUM ITERATIONS.

 TIME INCREMENT COMPLETED  8.750E-02,  FRACTION OF STEP COMPLETED   1.00    
 STEP TIME COMPLETED        1.00    ,  TOTAL TIME COMPLETED         1.00    
1

   Abaqus 2024.HF5                                  Date 16-Oct-2025   Time 09:25:26
   For use by APOLLO TYRES LTD under license from Dassault Systemes or its subsidiary.

 lift equation                                                                   
 COOLING                                                                         
 STEP    2     INCREMENT     1     STEP TIME    0.00    


                        S T E P       2     S T A T I C   A N A L Y S I S


          COOLING                                                                         

     AUTOMATIC TIME CONTROL WITH -
          A SUGGESTED INITIAL TIME INCREMENT OF                0.100    
          AND A TOTAL TIME PERIOD OF                            1.00    
          THE MINIMUM TIME INCREMENT ALLOWED IS                1.000E-05
          THE MAXIMUM TIME INCREMENT ALLOWED IS                 1.00    

     LINEAR EQUATION SOLVER TYPE         DIRECT SPARSE

 CONVERGENCE TOLERANCE PARAMETERS FOR FORCE    
     CRITERION FOR RESIDUAL FORCE     FOR A NONLINEAR PROBLEM          5.000E-03
     CRITERION FOR DISP.    CORRECTION IN A NONLINEAR PROBLEM          1.000E-02
     INIT. VALUE OF TIME AVG. FORCE     IS TIME AVG. FORCE     IN PREVIOUS STEP
     AVERAGE FORCE     IS TIME AVERAGE FORCE    
     ALTERNATE CRIT. FOR RESIDUAL FORCE     FOR A NONLINEAR PROBLEM    2.000E-02
     CRITERION FOR ZERO FORCE     RELATIVE TO TIME AVRG. FORCE         1.000E-05
     CRITERION FOR RESIDUAL FORCE     WHEN THERE IS ZERO FLUX          1.000E-05
     CRITERION FOR DISP.    CORRECTION WHEN THERE IS ZERO FLUX         1.000E-03
     CRITERION FOR RESIDUAL FORCE     FOR A LINEAR INCREMENT           1.000E-08
     FIELD CONVERSION RATIO                                             1.00    
     CRITERION FOR ZERO FORCE     REL. TO TIME AVRG. MAX. FORCE        1.000E-05
     CRITERION FOR ZERO DISP.    RELATIVE TO CHARACTERISTIC LENGTH     1.000E-08

 CONVERGENCE TOLERANCE PARAMETERS FOR MOMENT   
     CRITERION FOR RESIDUAL MOMENT    FOR A NONLINEAR PROBLEM          5.000E-03
     CRITERION FOR ROTATION CORRECTION IN A NONLINEAR PROBLEM          1.000E-02
     INIT. VALUE OF TIME AVG. MOMENT    IS TIME AVG. MOMENT    IN PREVIOUS STEP
     AVERAGE MOMENT    IS TIME AVERAGE MOMENT   
     ALTERNATE CRIT. FOR RESIDUAL MOMENT    FOR A NONLINEAR PROBLEM    2.000E-02
     CRITERION FOR ZERO MOMENT    RELATIVE TO TIME AVRG. MOMENT        1.000E-05
     CRITERION FOR RESIDUAL MOMENT    WHEN THERE IS ZERO FLUX          1.000E-05
     CRITERION FOR ROTATION CORRECTION WHEN THERE IS ZERO FLUX         1.000E-03
     CRITERION FOR RESIDUAL MOMENT    FOR A LINEAR INCREMENT           1.000E-08
     FIELD CONVERSION RATIO                                             1.00    
     CRITERION FOR ZERO MOMENT    REL. TO TIME AVRG. MAX. MOMENT       1.000E-05

     VOLUMETRIC STRAIN COMPATIBILITY TOLERANCE FOR HYBRID SOLIDS       1.000E-05
     AXIAL STRAIN COMPATIBILITY TOLERANCE FOR HYBRID BEAMS             1.000E-05
     TRANS. SHEAR STRAIN COMPATIBILITY TOLERANCE FOR HYBRID BEAMS      1.000E-05
     SOFT CONTACT CONSTRAINT COMPATIBILITY TOLERANCE FOR P>P0          5.000E-03
     SOFT CONTACT CONSTRAINT COMPATIBILITY TOLERANCE FOR P=0.0         0.100    
     CONTACT FORCE ERROR TOLERANCE FOR CONVERT SDI=YES                 1.00    
     DISPLACEMENT COMPATIBILITY TOLERANCE FOR DCOUP ELEMENTS           1.000E-05
     ROTATION COMPATIBILITY TOLERANCE FOR DCOUP ELEMENTS               1.000E-05

 EQUILIBRIUM WILL BE CHECKED FOR SEVERE DISCONTINUITY ITERATIONS

 TIME INCREMENTATION CONTROL PARAMETERS:
 *** FIRST EQUILIBRIUM ITERATION FOR CONSECUTIVE DIVERGENCE CHECK              8
 *** EQUILIBRIUM ITERATION AT WHICH LOG. CONVERGENCE RATE CHECK BEGINS        10
     EQUILIBRIUM ITERATION AFTER WHICH ALTERNATE RESIDUAL IS USED              9
     MAXIMUM EQUILIBRIUM ITERATIONS ALLOWED                                   16
     EQUILIBRIUM ITERATION COUNT FOR CUT-BACK IN NEXT INCREMENT               10
     MAXIMUM EQUILIB. ITERS IN TWO INCREMENTS FOR TIME INCREMENT INCREASE      4
     MAXIMUM ITERATIONS FOR SEVERE DISCONTINUITIES                            50
     MAXIMUM ATTEMPTS ALLOWED IN AN INCREMENT                                  5
     MAXIMUM DISCON. ITERS IN TWO INCREMENTS FOR TIME INCREMENT INCREASE      50
     MAXIMUM CONTACT AUGMENTATIONS FOR *SURFACE BEHAVIOR,AUGMENTED LAGRANGE   50
     CUT-BACK FACTOR AFTER DIVERGENCE                                 0.2500    
     CUT-BACK FACTOR FOR TOO SLOW CONVERGENCE                         0.5000    
     CUT-BACK FACTOR AFTER TOO MANY EQUILIBRIUM ITERATIONS            0.7500    
     CUT-BACK FACTOR AFTER TOO MANY SEVERE DISCONTINUITY ITERATIONS   0.2500    
     CUT-BACK FACTOR AFTER PROBLEMS IN ELEMENT ASSEMBLY               0.2500    
     INCREASE FACTOR AFTER TWO INCREMENTS THAT CONVERGE QUICKLY        1.500    
     MAX. TIME INCREMENT INCREASE FACTOR ALLOWED                       1.500    
     MAX. TIME INCREMENT INCREASE FACTOR ALLOWED (DYNAMICS)            1.250    
     MAX. TIME INCREMENT INCREASE FACTOR ALLOWED (DIFFUSION)           2.000    
     MINIMUM TIME INCREMENT RATIO FOR EXTRAPOLATION TO OCCUR          0.1000    
     MAX. RATIO OF TIME INCREMENT TO STABILITY LIMIT                   1.000    
     FRACTION OF STABILITY LIMIT FOR NEW TIME INCREMENT               0.9500    
     TIME INCREMENT INCREASE FACTOR BEFORE A TIME POINT                1.000    

 *** INDICATES USE OF NON-DEFAULT TIME INCREMENTATION CONTROL PARAMETER
     SELECTED WITH *CONTROLS

 CONTACT CONTROLS APPLIED TO ALL CONTACT PAIRS:
     GLOBAL STABILIZATION CONTROL IS NOT USED
     RELATIVE PENETRATION TOLERANCE FOR AUGMENTED LAGRANGE CONTACT:
          FINITE-SLIDING SURFACE-TO-SURFACE                            5.000E-02
          OTHERWISE                                                    1.000E-03

          PRINT OF INCREMENT NUMBER, TIME, ETC., EVERY    1  INCREMENTS

     RESTART FILE WILL BE WRITTEN EVERY   100  INCREMENTS

     THE MAXIMUM NUMBER OF INCREMENTS IN THIS STEP IS                     100

          LARGE DISPLACEMENT THEORY WILL BE USED

          UNSYMMETRIC MATRIX STORAGE AND SOLUTION WILL BE USED

     LINEAR EXTRAPOLATION WILL BE USED

     CHARACTERISTIC ELEMENT LENGTH      3.39    

     DETAILS REGARDING ACTUAL SOLUTION WAVEFRONT REQUESTED

     DETAILED OUTPUT OF DIAGNOSTICS TO DATABASE REQUESTED

     PRINT OF INCREMENT NUMBER, TIME, ETC., TO THE MESSAGE FILE EVERY     1  INCREMENTS

     COLLECTING STEP CONSTRAINT INFORMATION FOR OVERCONSTRAINT CHECKS


  INCREMENT     1 STARTS. ATTEMPT NUMBER  1, TIME INCREMENT  0.100    

 ***WARNING: THERE ARE 3 UNCONNECTED REGIONS IN THE MODEL.

 ***NOTE: SFM TYPE SURFACE ELEMENTS USED TO DEFINE CONTACT SURFACES NOT PART OF 
          A RIGID BODY MAY INCREASE THE NUMBER OF UNCONNECTED REGIONS REPORTED.
 
	UNSYMMETRIC PURE THREAD-BASED DIRECT SPARSE SOLVER RUNNING ON
 	1 HOST x 1 MPI RANK PER HOST x 1 THREAD PER RANK
        NUMBER OF EQUATIONS:  2906
        NUMBER OF RHS:        1
        NUMBER OF FLOPS:      9.328e+06
        SOLVER ELAPSED TIME:  10ms

               CONVERGENCE CHECKS FOR EQUILIBRIUM ITERATION     1


 AVERAGE FORCE                       43.3       TIME AVG. FORCE        43.3    
 LARGEST SCALED RESIDUAL FORCE      -497.       AT NODE       2386   DOF  2
  CORRESPONDING RESIDUAL FORCE      -497.    
 LARGEST INCREMENT OF DISP.        -0.227       AT NODE       2579   DOF  1
 LARGEST CORRECTION TO DISP.       -0.227       AT NODE       2579   DOF  1
          FORCE     EQUILIBRIUM NOT ACHIEVED WITHIN TOLERANCE.

 AVERAGE MOMENT                     8.461E+03   TIME AVG. MOMENT      8.461E+03
 LARGEST SCALED RESIDUAL MOMENT    -3.174E+05   AT NODE       2283   DOF  5
  CORRESPONDING RESIDUAL MOMENT    -3.174E+05
 LARGEST INCREMENT OF ROTATION     -5.656E-05   AT NODE       2594   DOF  5
 LARGEST CORRECTION TO ROTATION    -5.656E-05   AT NODE       2594   DOF  5
          MOMENT    EQUILIBRIUM NOT ACHIEVED WITHIN TOLERANCE.

 COMPATIBILITY ERRORS:
    TYPE                NUMBER EXCEEDING TOLERANCE  MAXIMUM ERROR        IN ELEMENT
 VOLUMETRIC                        112               -7.555E-05               2508
 
	UNSYMMETRIC PURE THREAD-BASED DIRECT SPARSE SOLVER RUNNING ON
 	1 HOST x 1 MPI RANK PER HOST x 1 THREAD PER RANK
        NUMBER OF EQUATIONS:  2906
        NUMBER OF RHS:        1
        NUMBER OF FLOPS:      9.328e+06
        SOLVER ELAPSED TIME:  21ms

               CONVERGENCE CHECKS FOR EQUILIBRIUM ITERATION     2


 AVERAGE FORCE                       48.1       TIME AVG. FORCE        48.1    
 LARGEST SCALED RESIDUAL FORCE      -318.       AT NODE       2523   DOF  1
  CORRESPONDING RESIDUAL FORCE      -318.    
 LARGEST INCREMENT OF DISP.        -0.367       AT NODE       2431   DOF  1
 LARGEST CORRECTION TO DISP.       -0.155       AT NODE       2161   DOF  2
          FORCE     EQUILIBRIUM NOT ACHIEVED WITHIN TOLERANCE.

 AVERAGE MOMENT                     1.225E+04   TIME AVG. MOMENT      1.225E+04
 LARGEST SCALED RESIDUAL MOMENT     -250.       AT NODE       2579   DOF  5
  CORRESPONDING RESIDUAL MOMENT     -250.    
 LARGEST INCREMENT OF ROTATION      7.960E-05   AT NODE       2583   DOF  5
 LARGEST CORRECTION TO ROTATION     3.716E-05   AT NODE       2698   DOF  5
          MOMENT    EQUILIBRIUM NOT ACHIEVED WITHIN TOLERANCE.

 COMPATIBILITY ERRORS:
    TYPE                NUMBER EXCEEDING TOLERANCE  MAXIMUM ERROR        IN ELEMENT
 VOLUMETRIC                         88               -5.616E-05               2070
 
	UNSYMMETRIC PURE THREAD-BASED DIRECT SPARSE SOLVER RUNNING ON
 	1 HOST x 1 MPI RANK PER HOST x 1 THREAD PER RANK
        NUMBER OF EQUATIONS:  2906
        NUMBER OF RHS:        1
        NUMBER OF FLOPS:      9.328e+06
        SOLVER ELAPSED TIME:  21ms

               CONVERGENCE CHECKS FOR EQUILIBRIUM ITERATION     3


 AVERAGE FORCE                       45.5       TIME AVG. FORCE        45.5    
 LARGEST SCALED RESIDUAL FORCE      -6.78       AT NODE       2493   DOF  1
  CORRESPONDING RESIDUAL FORCE      -6.78    
 LARGEST INCREMENT OF DISP.        -0.367       AT NODE       2431   DOF  1
 LARGEST CORRECTION TO DISP.       -9.129E-03   AT NODE       2487   DOF  2
          FORCE     EQUILIBRIUM NOT ACHIEVED WITHIN TOLERANCE.

 AVERAGE MOMENT                     1.225E+04   TIME AVG. MOMENT      1.225E+04
 LARGEST SCALED RESIDUAL MOMENT    -0.159       AT NODE       2375   DOF  5
  CORRESPONDING RESIDUAL MOMENT    -0.159    
 LARGEST INCREMENT OF ROTATION      7.964E-05   AT NODE       2583   DOF  5
 LARGEST CORRECTION TO ROTATION    -1.499E-07   AT NODE       2335   DOF  5
          THE MOMENT    EQUILIBRIUM EQUATIONS HAVE CONVERGED

 COMPATIBILITY ERRORS:
    TYPE                NUMBER EXCEEDING TOLERANCE  MAXIMUM ERROR        IN ELEMENT
 VOLUMETRIC                          0               -2.979E-07               2147
 
	UNSYMMETRIC PURE THREAD-BASED DIRECT SPARSE SOLVER RUNNING ON
 	1 HOST x 1 MPI RANK PER HOST x 1 THREAD PER RANK
        NUMBER OF EQUATIONS:  2906
        NUMBER OF RHS:        1
        NUMBER OF FLOPS:      9.328e+06
        SOLVER ELAPSED TIME:  21ms

               CONVERGENCE CHECKS FOR EQUILIBRIUM ITERATION     4


 AVERAGE FORCE                       45.5       TIME AVG. FORCE        45.5    
 LARGEST SCALED RESIDUAL FORCE     -1.409E-02   AT NODE       2523   DOF  1
  CORRESPONDING RESIDUAL FORCE     -1.409E-02
 LARGEST INCREMENT OF DISP.        -0.367       AT NODE       2431   DOF  1
 LARGEST CORRECTION TO DISP.       -2.884E-03   AT NODE       2408   DOF  2
          THE FORCE     EQUILIBRIUM EQUATIONS HAVE CONVERGED

 AVERAGE MOMENT                     1.225E+04   TIME AVG. MOMENT      1.225E+04
 LARGEST SCALED RESIDUAL MOMENT    -8.788E-04   AT NODE       2245   DOF  5
  CORRESPONDING RESIDUAL MOMENT    -8.788E-04
 LARGEST INCREMENT OF ROTATION      7.963E-05   AT NODE       2583   DOF  5
 LARGEST CORRECTION TO ROTATION     7.304E-09   AT NODE       2240   DOF  5
          THE MOMENT    EQUILIBRIUM EQUATIONS HAVE CONVERGED

 COMPATIBILITY ERRORS:
    TYPE                NUMBER EXCEEDING TOLERANCE  MAXIMUM ERROR        IN ELEMENT
 VOLUMETRIC                          0               -7.601E-09               2183

 ITERATION SUMMARY FOR THE INCREMENT:   4 TOTAL ITERATIONS, OF WHICH
   0 ARE SEVERE DISCONTINUITY ITERATIONS AND  4 ARE EQUILIBRIUM ITERATIONS.

 TIME INCREMENT COMPLETED  0.100    ,  FRACTION OF STEP COMPLETED  0.100    
 STEP TIME COMPLETED       0.100    ,  TOTAL TIME COMPLETED         1.10    


  INCREMENT     2 STARTS. ATTEMPT NUMBER  1, TIME INCREMENT  0.100    
 
	UNSYMMETRIC PURE THREAD-BASED DIRECT SPARSE SOLVER RUNNING ON
 	1 HOST x 1 MPI RANK PER HOST x 1 THREAD PER RANK
        NUMBER OF EQUATIONS:  2906
        NUMBER OF RHS:        1
        NUMBER OF FLOPS:      9.328e+06
        SOLVER ELAPSED TIME:  10ms

               CONVERGENCE CHECKS FOR EQUILIBRIUM ITERATION     1


 AVERAGE FORCE                       103.       TIME AVG. FORCE        74.1    
 LARGEST SCALED RESIDUAL FORCE      -1.42       AT NODE       2502   DOF  1
  CORRESPONDING RESIDUAL FORCE      -1.42    
 LARGEST INCREMENT OF DISP.        -0.367       AT NODE       2431   DOF  1
 LARGEST CORRECTION TO DISP.       -4.943E-03   AT NODE       2570   DOF  2
          FORCE     EQUILIBRIUM NOT ACHIEVED WITHIN TOLERANCE.

 AVERAGE MOMENT                     4.620E+04   TIME AVG. MOMENT      2.922E+04
 LARGEST SCALED RESIDUAL MOMENT      2.27       AT NODE       2605   DOF  5
  CORRESPONDING RESIDUAL MOMENT      2.27    
 LARGEST INCREMENT OF ROTATION      7.939E-05   AT NODE       2583   DOF  5
 LARGEST CORRECTION TO ROTATION    -7.223E-07   AT NODE       2580   DOF  5
          THE MOMENT    EQUILIBRIUM EQUATIONS HAVE CONVERGED

 COMPATIBILITY ERRORS:
    TYPE                NUMBER EXCEEDING TOLERANCE  MAXIMUM ERROR        IN ELEMENT
 VOLUMETRIC                          0               -5.685E-08               2074
 
	UNSYMMETRIC PURE THREAD-BASED DIRECT SPARSE SOLVER RUNNING ON
 	1 HOST x 1 MPI RANK PER HOST x 1 THREAD PER RANK
        NUMBER OF EQUATIONS:  2906
        NUMBER OF RHS:        1
        NUMBER OF FLOPS:      9.328e+06
        SOLVER ELAPSED TIME:  21ms

               CONVERGENCE CHECKS FOR EQUILIBRIUM ITERATION     2


 AVERAGE FORCE                       103.       TIME AVG. FORCE        74.2    
 LARGEST SCALED RESIDUAL FORCE     -1.656E-03   AT NODE       2016   DOF  1
  CORRESPONDING RESIDUAL FORCE     -1.656E-03
 LARGEST INCREMENT OF DISP.        -0.367       AT NODE       2431   DOF  1
 LARGEST CORRECTION TO DISP.       -4.216E-04   AT NODE       2505   DOF  2
          THE FORCE     EQUILIBRIUM EQUATIONS HAVE CONVERGED

 AVERAGE MOMENT                     4.620E+04   TIME AVG. MOMENT      2.922E+04
 LARGEST SCALED RESIDUAL MOMENT     5.679E-04   AT NODE       2255   DOF  5
  CORRESPONDING RESIDUAL MOMENT     5.679E-04
 LARGEST INCREMENT OF ROTATION      7.939E-05   AT NODE       2583   DOF  5
 LARGEST CORRECTION TO ROTATION    -6.674E-09   AT NODE       2592   DOF  5
          THE MOMENT    EQUILIBRIUM EQUATIONS HAVE CONVERGED

 COMPATIBILITY ERRORS:
    TYPE                NUMBER EXCEEDING TOLERANCE  MAXIMUM ERROR        IN ELEMENT
 VOLUMETRIC                          0               -2.685E-10               2425
          TIME INCREMENT MAY NOW INCREASE TO    0.150    

 ITERATION SUMMARY FOR THE INCREMENT:   2 TOTAL ITERATIONS, OF WHICH
   0 ARE SEVERE DISCONTINUITY ITERATIONS AND  2 ARE EQUILIBRIUM ITERATIONS.

 TIME INCREMENT COMPLETED  0.100    ,  FRACTION OF STEP COMPLETED  0.200    
 STEP TIME COMPLETED       0.200    ,  TOTAL TIME COMPLETED         1.20    


  INCREMENT     3 STARTS. ATTEMPT NUMBER  1, TIME INCREMENT  0.150    
 
	UNSYMMETRIC PURE THREAD-BASED DIRECT SPARSE SOLVER RUNNING ON
 	1 HOST x 1 MPI RANK PER HOST x 1 THREAD PER RANK
        NUMBER OF EQUATIONS:  2906
        NUMBER OF RHS:        1
        NUMBER OF FLOPS:      9.328e+06
        SOLVER ELAPSED TIME:  22ms

               CONVERGENCE CHECKS FOR EQUILIBRIUM ITERATION     1


 AVERAGE FORCE                       170.       TIME AVG. FORCE        106.    
 LARGEST SCALED RESIDUAL FORCE      -2.09       AT NODE       2502   DOF  1
  CORRESPONDING RESIDUAL FORCE      -2.09    
 LARGEST INCREMENT OF DISP.        -0.550       AT NODE       2416   DOF  1
 LARGEST CORRECTION TO DISP.        3.913E-02   AT NODE       2669   DOF  1
          FORCE     EQUILIBRIUM NOT ACHIEVED WITHIN TOLERANCE.

 AVERAGE MOMENT                     7.814E+04   TIME AVG. MOMENT      4.553E+04
 LARGEST SCALED RESIDUAL MOMENT      7.05       AT NODE       2073   DOF  5
  CORRESPONDING RESIDUAL MOMENT      7.05    
 LARGEST INCREMENT OF ROTATION      1.179E-04   AT NODE       2583   DOF  5
 LARGEST CORRECTION TO ROTATION    -1.872E-06   AT NODE       2580   DOF  5
 ESTIMATE OF ROTATION CORRECTION   -6.004E-09
          MOMENT    EQUILIB. ACCEPTED BASED ON SMALL RESIDUAL AND ESTIMATED CORRECTION

 COMPATIBILITY ERRORS:
    TYPE                NUMBER EXCEEDING TOLERANCE  MAXIMUM ERROR        IN ELEMENT
 VOLUMETRIC                          0               -5.796E-07               2044
 
	UNSYMMETRIC PURE THREAD-BASED DIRECT SPARSE SOLVER RUNNING ON
 	1 HOST x 1 MPI RANK PER HOST x 1 THREAD PER RANK
        NUMBER OF EQUATIONS:  2906
        NUMBER OF RHS:        1
        NUMBER OF FLOPS:      9.328e+06
        SOLVER ELAPSED TIME:  21ms

               CONVERGENCE CHECKS FOR EQUILIBRIUM ITERATION     2


 AVERAGE FORCE                       178.       TIME AVG. FORCE        109.    
 LARGEST SCALED RESIDUAL FORCE      1.199E-02   AT NODE       2347   DOF  1
  CORRESPONDING RESIDUAL FORCE      1.199E-02
 LARGEST INCREMENT OF DISP.        -0.550       AT NODE       2416   DOF  1
 LARGEST CORRECTION TO DISP.       -2.964E-03   AT NODE       2408   DOF  2
          THE FORCE     EQUILIBRIUM EQUATIONS HAVE CONVERGED

 AVERAGE MOMENT                     7.813E+04   TIME AVG. MOMENT      4.553E+04
 LARGEST SCALED RESIDUAL MOMENT     1.544E-02   AT NODE       2278   DOF  5
  CORRESPONDING RESIDUAL MOMENT     1.544E-02
 LARGEST INCREMENT OF ROTATION      1.179E-04   AT NODE       2583   DOF  5
 LARGEST CORRECTION TO ROTATION    -2.420E-08   AT NODE       2113   DOF  5
          THE MOMENT    EQUILIBRIUM EQUATIONS HAVE CONVERGED

 COMPATIBILITY ERRORS:
    TYPE                NUMBER EXCEEDING TOLERANCE  MAXIMUM ERROR        IN ELEMENT
 VOLUMETRIC                          0               -4.859E-09               2067
          TIME INCREMENT MAY NOW INCREASE TO    0.225    

 ITERATION SUMMARY FOR THE INCREMENT:   2 TOTAL ITERATIONS, OF WHICH
   0 ARE SEVERE DISCONTINUITY ITERATIONS AND  2 ARE EQUILIBRIUM ITERATIONS.

 TIME INCREMENT COMPLETED  0.150    ,  FRACTION OF STEP COMPLETED  0.350    
 STEP TIME COMPLETED       0.350    ,  TOTAL TIME COMPLETED         1.35    


  INCREMENT     4 STARTS. ATTEMPT NUMBER  1, TIME INCREMENT  0.225    
 
	UNSYMMETRIC PURE THREAD-BASED DIRECT SPARSE SOLVER RUNNING ON
 	1 HOST x 1 MPI RANK PER HOST x 1 THREAD PER RANK
        NUMBER OF EQUATIONS:  2906
        NUMBER OF RHS:        1
        NUMBER OF FLOPS:      9.328e+06
        SOLVER ELAPSED TIME:  21ms

               CONVERGENCE CHECKS FOR EQUILIBRIUM ITERATION     1


 AVERAGE FORCE                       260.       TIME AVG. FORCE        147.    
 LARGEST SCALED RESIDUAL FORCE       43.7       AT NODE       2011   DOF  2
  CORRESPONDING RESIDUAL FORCE       43.7    
 LARGEST INCREMENT OF DISP.        -0.739       AT NODE       2416   DOF  1
 LARGEST CORRECTION TO DISP.        0.118       AT NODE       2294   DOF  1
          FORCE     EQUILIBRIUM NOT ACHIEVED WITHIN TOLERANCE.

 AVERAGE MOMENT                     1.188E+05   TIME AVG. MOMENT      6.384E+04
 LARGEST SCALED RESIDUAL MOMENT     -65.2       AT NODE       2577   DOF  5
  CORRESPONDING RESIDUAL MOMENT     -65.2    
 LARGEST INCREMENT OF ROTATION      1.581E-04   AT NODE       2583   DOF  5
 LARGEST CORRECTION TO ROTATION     1.916E-05   AT NODE       2240   DOF  5
 ESTIMATE OF ROTATION CORRECTION   -2.300E-07
          MOMENT    EQUILIB. ACCEPTED BASED ON SMALL RESIDUAL AND ESTIMATED CORRECTION

 COMPATIBILITY ERRORS:
    TYPE                NUMBER EXCEEDING TOLERANCE  MAXIMUM ERROR        IN ELEMENT
 VOLUMETRIC                          2               -1.113E-05               2026
 
	UNSYMMETRIC PURE THREAD-BASED DIRECT SPARSE SOLVER RUNNING ON
 	1 HOST x 1 MPI RANK PER HOST x 1 THREAD PER RANK
        NUMBER OF EQUATIONS:  2906
        NUMBER OF RHS:        1
        NUMBER OF FLOPS:      9.328e+06
        SOLVER ELAPSED TIME:  10ms

               CONVERGENCE CHECKS FOR EQUILIBRIUM ITERATION     2


 AVERAGE FORCE                       278.       TIME AVG. FORCE        151.    
 LARGEST SCALED RESIDUAL FORCE       4.38       AT NODE       2503   DOF  1
  CORRESPONDING RESIDUAL FORCE       4.38    
 LARGEST INCREMENT OF DISP.        -0.730       AT NODE       2416   DOF  1
 LARGEST CORRECTION TO DISP.        2.407E-02   AT NODE       2167   DOF  2
          FORCE     EQUILIBRIUM NOT ACHIEVED WITHIN TOLERANCE.

 AVERAGE MOMENT                     1.189E+05   TIME AVG. MOMENT      6.386E+04
 LARGEST SCALED RESIDUAL MOMENT      1.33       AT NODE       2236   DOF  5
  CORRESPONDING RESIDUAL MOMENT      1.33    
 LARGEST INCREMENT OF ROTATION      1.572E-04   AT NODE       2583   DOF  5
 LARGEST CORRECTION TO ROTATION     9.980E-07   AT NODE       2240   DOF  5
          THE MOMENT    EQUILIBRIUM EQUATIONS HAVE CONVERGED

 COMPATIBILITY ERRORS:
    TYPE                NUMBER EXCEEDING TOLERANCE  MAXIMUM ERROR        IN ELEMENT
 VOLUMETRIC                          0               -1.909E-06               2028
 
	UNSYMMETRIC PURE THREAD-BASED DIRECT SPARSE SOLVER RUNNING ON
 	1 HOST x 1 MPI RANK PER HOST x 1 THREAD PER RANK
        NUMBER OF EQUATIONS:  2906
        NUMBER OF RHS:        1
        NUMBER OF FLOPS:      9.328e+06
        SOLVER ELAPSED TIME:  26ms

               CONVERGENCE CHECKS FOR EQUILIBRIUM ITERATION     3


 AVERAGE FORCE                       283.       TIME AVG. FORCE        152.    
 LARGEST SCALED RESIDUAL FORCE     -7.515E-03   AT NODE       2523   DOF  1
  CORRESPONDING RESIDUAL FORCE     -7.515E-03
 LARGEST INCREMENT OF DISP.        -0.730       AT NODE       2416   DOF  1
 LARGEST CORRECTION TO DISP.       -2.688E-03   AT NODE       2408   DOF  2
          THE FORCE     EQUILIBRIUM EQUATIONS HAVE CONVERGED

 AVERAGE MOMENT                     1.189E+05   TIME AVG. MOMENT      6.386E+04
 LARGEST SCALED RESIDUAL MOMENT     3.601E-03   AT NODE       2589   DOF  5
  CORRESPONDING RESIDUAL MOMENT     3.601E-03
 LARGEST INCREMENT OF ROTATION      1.571E-04   AT NODE       2583   DOF  5
 LARGEST CORRECTION TO ROTATION    -5.429E-09   AT NODE       2583   DOF  5
          THE MOMENT    EQUILIBRIUM EQUATIONS HAVE CONVERGED

 COMPATIBILITY ERRORS:
    TYPE                NUMBER EXCEEDING TOLERANCE  MAXIMUM ERROR        IN ELEMENT
 VOLUMETRIC                          0               -8.301E-09               2428
          TIME INCREMENT MAY NOW INCREASE TO    0.338    

 ITERATION SUMMARY FOR THE INCREMENT:   3 TOTAL ITERATIONS, OF WHICH
   0 ARE SEVERE DISCONTINUITY ITERATIONS AND  3 ARE EQUILIBRIUM ITERATIONS.

 TIME INCREMENT COMPLETED  0.225    ,  FRACTION OF STEP COMPLETED  0.575    
 STEP TIME COMPLETED       0.575    ,  TOTAL TIME COMPLETED         1.58    


  INCREMENT     5 STARTS. ATTEMPT NUMBER  1, TIME INCREMENT  0.338    
 
	UNSYMMETRIC PURE THREAD-BASED DIRECT SPARSE SOLVER RUNNING ON
 	1 HOST x 1 MPI RANK PER HOST x 1 THREAD PER RANK
        NUMBER OF EQUATIONS:  2906
        NUMBER OF RHS:        1
        NUMBER OF FLOPS:      9.328e+06
        SOLVER ELAPSED TIME:  12ms

               CONVERGENCE CHECKS FOR EQUILIBRIUM ITERATION     1


 AVERAGE FORCE                       386.       TIME AVG. FORCE        199.    
 LARGEST SCALED RESIDUAL FORCE       129.       AT NODE       2011   DOF  2
  CORRESPONDING RESIDUAL FORCE       129.    
 LARGEST INCREMENT OF DISP.        -0.937       AT NODE       2416   DOF  1
 LARGEST CORRECTION TO DISP.        0.235       AT NODE       2651   DOF  1
          FORCE     EQUILIBRIUM NOT ACHIEVED WITHIN TOLERANCE.

 AVERAGE MOMENT                     1.640E+05   TIME AVG. MOMENT      8.389E+04
 LARGEST SCALED RESIDUAL MOMENT     -240.       AT NODE       2577   DOF  5
  CORRESPONDING RESIDUAL MOMENT     -240.    
 LARGEST INCREMENT OF ROTATION      2.026E-04   AT NODE       2583   DOF  5
 LARGEST CORRECTION TO ROTATION     3.317E-05   AT NODE       2240   DOF  5
 ESTIMATE OF ROTATION CORRECTION   -5.647E-07
          MOMENT    EQUILIB. ACCEPTED BASED ON SMALL RESIDUAL AND ESTIMATED CORRECTION

 COMPATIBILITY ERRORS:
    TYPE                NUMBER EXCEEDING TOLERANCE  MAXIMUM ERROR        IN ELEMENT
 VOLUMETRIC                         98               -3.627E-05               2068
 
	UNSYMMETRIC PURE THREAD-BASED DIRECT SPARSE SOLVER RUNNING ON
 	1 HOST x 1 MPI RANK PER HOST x 1 THREAD PER RANK
        NUMBER OF EQUATIONS:  2906
        NUMBER OF RHS:        1
        NUMBER OF FLOPS:      9.328e+06
        SOLVER ELAPSED TIME:  21ms

               CONVERGENCE CHECKS FOR EQUILIBRIUM ITERATION     2


 AVERAGE FORCE                       406.       TIME AVG. FORCE        203.    
 LARGEST SCALED RESIDUAL FORCE      -21.8       AT NODE       2552   DOF  1
  CORRESPONDING RESIDUAL FORCE      -21.8    
 LARGEST INCREMENT OF DISP.        -0.912       AT NODE       2416   DOF  1
 LARGEST CORRECTION TO DISP.       -6.888E-02   AT NODE       2529   DOF  2
          FORCE     EQUILIBRIUM NOT ACHIEVED WITHIN TOLERANCE.

 AVERAGE MOMENT                     1.639E+05   TIME AVG. MOMENT      8.386E+04
 LARGEST SCALED RESIDUAL MOMENT      10.1       AT NODE       2240   DOF  5
  CORRESPONDING RESIDUAL MOMENT      10.1    
 LARGEST INCREMENT OF ROTATION      1.999E-04   AT NODE       2583   DOF  5
 LARGEST CORRECTION TO ROTATION     2.881E-06   AT NODE       2234   DOF  5
 ESTIMATE OF ROTATION CORRECTION   -1.214E-07
          MOMENT    EQUILIB. ACCEPTED BASED ON SMALL RESIDUAL AND ESTIMATED CORRECTION

 COMPATIBILITY ERRORS:
    TYPE                NUMBER EXCEEDING TOLERANCE  MAXIMUM ERROR        IN ELEMENT
 VOLUMETRIC                          5               -1.297E-05               2070
 
	UNSYMMETRIC PURE THREAD-BASED DIRECT SPARSE SOLVER RUNNING ON
 	1 HOST x 1 MPI RANK PER HOST x 1 THREAD PER RANK
        NUMBER OF EQUATIONS:  2906
        NUMBER OF RHS:        1
        NUMBER OF FLOPS:      9.328e+06
        SOLVER ELAPSED TIME:  15ms

               CONVERGENCE CHECKS FOR EQUILIBRIUM ITERATION     3


 AVERAGE FORCE                       421.       TIME AVG. FORCE        206.    
 LARGEST SCALED RESIDUAL FORCE     -0.186       AT NODE       2161   DOF  1
  CORRESPONDING RESIDUAL FORCE     -0.186    
 LARGEST INCREMENT OF DISP.        -0.912       AT NODE       2416   DOF  1
 LARGEST CORRECTION TO DISP.        1.496E-02   AT NODE       2035   DOF  2
 ESTIMATE OF DISP.    CORRECTION    1.274E-04
          FORCE     EQUILIB. ACCEPTED BASED ON SMALL RESIDUAL AND ESTIMATED CORRECTION

 AVERAGE MOMENT                     1.639E+05   TIME AVG. MOMENT      8.386E+04
 LARGEST SCALED RESIDUAL MOMENT     2.586E-02   AT NODE       2256   DOF  5
  CORRESPONDING RESIDUAL MOMENT     2.586E-02
 LARGEST INCREMENT OF ROTATION      1.998E-04   AT NODE       2583   DOF  5
 LARGEST CORRECTION TO ROTATION     2.974E-08   AT NODE       2240   DOF  5
          THE MOMENT    EQUILIBRIUM EQUATIONS HAVE CONVERGED

 COMPATIBILITY ERRORS:
    TYPE                NUMBER EXCEEDING TOLERANCE  MAXIMUM ERROR        IN ELEMENT
 VOLUMETRIC                          0               -2.026E-07               2367

 ITERATION SUMMARY FOR THE INCREMENT:   3 TOTAL ITERATIONS, OF WHICH
   0 ARE SEVERE DISCONTINUITY ITERATIONS AND  3 ARE EQUILIBRIUM ITERATIONS.

 TIME INCREMENT COMPLETED  0.338    ,  FRACTION OF STEP COMPLETED  0.913    
 STEP TIME COMPLETED       0.913    ,  TOTAL TIME COMPLETED         1.91    


  INCREMENT     6 STARTS. ATTEMPT NUMBER  1, TIME INCREMENT  8.750E-02
 
	UNSYMMETRIC PURE THREAD-BASED DIRECT SPARSE SOLVER RUNNING ON
 	1 HOST x 1 MPI RANK PER HOST x 1 THREAD PER RANK
        NUMBER OF EQUATIONS:  2906
        NUMBER OF RHS:        1
        NUMBER OF FLOPS:      9.328e+06
        SOLVER ELAPSED TIME:  21ms

               CONVERGENCE CHECKS FOR EQUILIBRIUM ITERATION     1


 AVERAGE FORCE                       435.       TIME AVG. FORCE        244.    
 LARGEST SCALED RESIDUAL FORCE       7.12       AT NODE       2011   DOF  2
  CORRESPONDING RESIDUAL FORCE       7.12    
 LARGEST INCREMENT OF DISP.        -0.243       AT NODE       2566   DOF  2
 LARGEST CORRECTION TO DISP.        4.504E-02   AT NODE       2177   DOF  1
          FORCE     EQUILIBRIUM NOT ACHIEVED WITHIN TOLERANCE.

 AVERAGE MOMENT                     1.741E+05   TIME AVG. MOMENT      9.891E+04
 LARGEST SCALED RESIDUAL MOMENT     -17.0       AT NODE       2257   DOF  5
  CORRESPONDING RESIDUAL MOMENT     -17.0    
 LARGEST INCREMENT OF ROTATION      4.438E-05   AT NODE       2583   DOF  5
 LARGEST CORRECTION TO ROTATION     7.515E-06   AT NODE       2240   DOF  5
 ESTIMATE OF ROTATION CORRECTION    4.374E-08
          MOMENT    EQUILIB. ACCEPTED BASED ON SMALL RESIDUAL AND ESTIMATED CORRECTION

 COMPATIBILITY ERRORS:
    TYPE                NUMBER EXCEEDING TOLERANCE  MAXIMUM ERROR        IN ELEMENT
 VOLUMETRIC                          0               -2.388E-06               2028
 
	UNSYMMETRIC PURE THREAD-BASED DIRECT SPARSE SOLVER RUNNING ON
 	1 HOST x 1 MPI RANK PER HOST x 1 THREAD PER RANK
        NUMBER OF EQUATIONS:  2906
        NUMBER OF RHS:        1
        NUMBER OF FLOPS:      9.328e+06
        SOLVER ELAPSED TIME:  21ms

               CONVERGENCE CHECKS FOR EQUILIBRIUM ITERATION     2


 AVERAGE FORCE                       456.       TIME AVG. FORCE        248.    
 LARGEST SCALED RESIDUAL FORCE     -5.053E-02   AT NODE       2200   DOF  1
  CORRESPONDING RESIDUAL FORCE     -5.053E-02
 LARGEST INCREMENT OF DISP.        -0.243       AT NODE       2566   DOF  2
 LARGEST CORRECTION TO DISP.        4.607E-03   AT NODE       2035   DOF  2
 ESTIMATE OF DISP.    CORRECTION   -3.270E-05
          FORCE     EQUILIB. ACCEPTED BASED ON SMALL RESIDUAL AND ESTIMATED CORRECTION

 AVERAGE MOMENT                     1.741E+05   TIME AVG. MOMENT      9.891E+04
 LARGEST SCALED RESIDUAL MOMENT    -0.112       AT NODE       2245   DOF  5
  CORRESPONDING RESIDUAL MOMENT    -0.112    
 LARGEST INCREMENT OF ROTATION      4.430E-05   AT NODE       2583   DOF  5
 LARGEST CORRECTION TO ROTATION     1.237E-07   AT NODE       2234   DOF  5
          THE MOMENT    EQUILIBRIUM EQUATIONS HAVE CONVERGED

 COMPATIBILITY ERRORS:
    TYPE                NUMBER EXCEEDING TOLERANCE  MAXIMUM ERROR        IN ELEMENT
 VOLUMETRIC                          0               -3.068E-08               2029

 ITERATION SUMMARY FOR THE INCREMENT:   2 TOTAL ITERATIONS, OF WHICH
   0 ARE SEVERE DISCONTINUITY ITERATIONS AND  2 ARE EQUILIBRIUM ITERATIONS.

 TIME INCREMENT COMPLETED  8.750E-02,  FRACTION OF STEP COMPLETED   1.00    
 STEP TIME COMPLETED        1.00    ,  TOTAL TIME COMPLETED         2.00    

     RESTART INFORMATION WRITTEN IN STEP   2  AFTER INCREMENT     6
1

   Abaqus 2024.HF5                                  Date 16-Oct-2025   Time 09:25:28
   For use by APOLLO TYRES LTD under license from Dassault Systemes or its subsidiary.

 lift equation                                                                   
 RIM_MOUNTING                                                                    
 STEP    3     INCREMENT     1     STEP TIME    0.00    


                        S T E P       3     S T A T I C   A N A L Y S I S


          RIM_MOUNTING                                                                    

     AUTOMATIC TIME CONTROL WITH -
          A SUGGESTED INITIAL TIME INCREMENT OF                5.000E-02
          AND A TOTAL TIME PERIOD OF                            1.00    
          THE MINIMUM TIME INCREMENT ALLOWED IS                1.000E-05
          THE MAXIMUM TIME INCREMENT ALLOWED IS                 1.00    

     LINEAR EQUATION SOLVER TYPE         DIRECT SPARSE

 CONVERGENCE TOLERANCE PARAMETERS FOR FORCE    
     CRITERION FOR RESIDUAL FORCE     FOR A NONLINEAR PROBLEM          5.000E-03
     CRITERION FOR DISP.    CORRECTION IN A NONLINEAR PROBLEM          1.000E-02
     INIT. VALUE OF TIME AVG. FORCE     IS TIME AVG. FORCE     IN PREVIOUS STEP
     AVERAGE FORCE     IS TIME AVERAGE FORCE    
     ALTERNATE CRIT. FOR RESIDUAL FORCE     FOR A NONLINEAR PROBLEM    2.000E-02
     CRITERION FOR ZERO FORCE     RELATIVE TO TIME AVRG. FORCE         1.000E-05
     CRITERION FOR RESIDUAL FORCE     WHEN THERE IS ZERO FLUX          1.000E-05
     CRITERION FOR DISP.    CORRECTION WHEN THERE IS ZERO FLUX         1.000E-03
     CRITERION FOR RESIDUAL FORCE     FOR A LINEAR INCREMENT           1.000E-08
     FIELD CONVERSION RATIO                                             1.00    
     CRITERION FOR ZERO FORCE     REL. TO TIME AVRG. MAX. FORCE        1.000E-05
     CRITERION FOR ZERO DISP.    RELATIVE TO CHARACTERISTIC LENGTH     1.000E-08

 CONVERGENCE TOLERANCE PARAMETERS FOR MOMENT   
     CRITERION FOR RESIDUAL MOMENT    FOR A NONLINEAR PROBLEM          5.000E-03
     CRITERION FOR ROTATION CORRECTION IN A NONLINEAR PROBLEM          1.000E-02
     INIT. VALUE OF TIME AVG. MOMENT    IS TIME AVG. MOMENT    IN PREVIOUS STEP
     AVERAGE MOMENT    IS TIME AVERAGE MOMENT   
     ALTERNATE CRIT. FOR RESIDUAL MOMENT    FOR A NONLINEAR PROBLEM    2.000E-02
     CRITERION FOR ZERO MOMENT    RELATIVE TO TIME AVRG. MOMENT        1.000E-05
     CRITERION FOR RESIDUAL MOMENT    WHEN THERE IS ZERO FLUX          1.000E-05
     CRITERION FOR ROTATION CORRECTION WHEN THERE IS ZERO FLUX         1.000E-03
     CRITERION FOR RESIDUAL MOMENT    FOR A LINEAR INCREMENT           1.000E-08
     FIELD CONVERSION RATIO                                             1.00    
     CRITERION FOR ZERO MOMENT    REL. TO TIME AVRG. MAX. MOMENT       1.000E-05

     VOLUMETRIC STRAIN COMPATIBILITY TOLERANCE FOR HYBRID SOLIDS       1.000E-05
     AXIAL STRAIN COMPATIBILITY TOLERANCE FOR HYBRID BEAMS             1.000E-05
     TRANS. SHEAR STRAIN COMPATIBILITY TOLERANCE FOR HYBRID BEAMS      1.000E-05
     SOFT CONTACT CONSTRAINT COMPATIBILITY TOLERANCE FOR P>P0          5.000E-03
     SOFT CONTACT CONSTRAINT COMPATIBILITY TOLERANCE FOR P=0.0         0.100    
     CONTACT FORCE ERROR TOLERANCE FOR CONVERT SDI=YES                 1.00    
     DISPLACEMENT COMPATIBILITY TOLERANCE FOR DCOUP ELEMENTS           1.000E-05
     ROTATION COMPATIBILITY TOLERANCE FOR DCOUP ELEMENTS               1.000E-05

 EQUILIBRIUM WILL BE CHECKED FOR SEVERE DISCONTINUITY ITERATIONS

 TIME INCREMENTATION CONTROL PARAMETERS:
 *** FIRST EQUILIBRIUM ITERATION FOR CONSECUTIVE DIVERGENCE CHECK              8
 *** EQUILIBRIUM ITERATION AT WHICH LOG. CONVERGENCE RATE CHECK BEGINS        10
     EQUILIBRIUM ITERATION AFTER WHICH ALTERNATE RESIDUAL IS USED              9
     MAXIMUM EQUILIBRIUM ITERATIONS ALLOWED                                   16
     EQUILIBRIUM ITERATION COUNT FOR CUT-BACK IN NEXT INCREMENT               10
     MAXIMUM EQUILIB. ITERS IN TWO INCREMENTS FOR TIME INCREMENT INCREASE      4
     MAXIMUM ITERATIONS FOR SEVERE DISCONTINUITIES                            50
     MAXIMUM ATTEMPTS ALLOWED IN AN INCREMENT                                  5
     MAXIMUM DISCON. ITERS IN TWO INCREMENTS FOR TIME INCREMENT INCREASE      50
     MAXIMUM CONTACT AUGMENTATIONS FOR *SURFACE BEHAVIOR,AUGMENTED LAGRANGE   50
     CUT-BACK FACTOR AFTER DIVERGENCE                                 0.2500    
     CUT-BACK FACTOR FOR TOO SLOW CONVERGENCE                         0.5000    
     CUT-BACK FACTOR AFTER TOO MANY EQUILIBRIUM ITERATIONS            0.7500    
     CUT-BACK FACTOR AFTER TOO MANY SEVERE DISCONTINUITY ITERATIONS   0.2500    
     CUT-BACK FACTOR AFTER PROBLEMS IN ELEMENT ASSEMBLY               0.2500    
     INCREASE FACTOR AFTER TWO INCREMENTS THAT CONVERGE QUICKLY        1.500    
     MAX. TIME INCREMENT INCREASE FACTOR ALLOWED                       1.500    
     MAX. TIME INCREMENT INCREASE FACTOR ALLOWED (DYNAMICS)            1.250    
     MAX. TIME INCREMENT INCREASE FACTOR ALLOWED (DIFFUSION)           2.000    
     MINIMUM TIME INCREMENT RATIO FOR EXTRAPOLATION TO OCCUR          0.1000    
     MAX. RATIO OF TIME INCREMENT TO STABILITY LIMIT                   1.000    
     FRACTION OF STABILITY LIMIT FOR NEW TIME INCREMENT               0.9500    
     TIME INCREMENT INCREASE FACTOR BEFORE A TIME POINT                1.000    

 *** INDICATES USE OF NON-DEFAULT TIME INCREMENTATION CONTROL PARAMETER
     SELECTED WITH *CONTROLS

 CONTACT CONTROLS APPLIED TO ALL CONTACT PAIRS:
     GLOBAL STABILIZATION CONTROL IS NOT USED
     RELATIVE PENETRATION TOLERANCE FOR AUGMENTED LAGRANGE CONTACT:
          FINITE-SLIDING SURFACE-TO-SURFACE                            5.000E-02
          OTHERWISE                                                    1.000E-03

          PRINT OF INCREMENT NUMBER, TIME, ETC., EVERY    1  INCREMENTS

     RESTART FILE WILL BE WRITTEN EVERY   100  INCREMENTS

     THE MAXIMUM NUMBER OF INCREMENTS IN THIS STEP IS                     100

          LARGE DISPLACEMENT THEORY WILL BE USED

          UNSYMMETRIC MATRIX STORAGE AND SOLUTION WILL BE USED

     LINEAR EXTRAPOLATION WILL BE USED

     CHARACTERISTIC ELEMENT LENGTH      3.39    

     DETAILS REGARDING ACTUAL SOLUTION WAVEFRONT REQUESTED

     DETAILED OUTPUT OF DIAGNOSTICS TO DATABASE REQUESTED

     PRINT OF INCREMENT NUMBER, TIME, ETC., TO THE MESSAGE FILE EVERY     1  INCREMENTS

     COLLECTING STEP CONSTRAINT INFORMATION FOR OVERCONSTRAINT CHECKS


  INCREMENT     1 STARTS. ATTEMPT NUMBER  1, TIME INCREMENT  5.000E-02

 ***WARNING: THERE ARE 3 UNCONNECTED REGIONS IN THE MODEL.

 ***NOTE: SFM TYPE SURFACE ELEMENTS USED TO DEFINE CONTACT SURFACES NOT PART OF 
          A RIGID BODY MAY INCREASE THE NUMBER OF UNCONNECTED REGIONS REPORTED.
 
	UNSYMMETRIC PURE THREAD-BASED DIRECT SPARSE SOLVER RUNNING ON
 	1 HOST x 1 MPI RANK PER HOST x 1 THREAD PER RANK
        NUMBER OF EQUATIONS:  2906
        NUMBER OF RHS:        1
        NUMBER OF FLOPS:      9.328e+06
        SOLVER ELAPSED TIME:  21ms

               CONVERGENCE CHECKS FOR EQUILIBRIUM ITERATION     1


 AVERAGE FORCE                       456.       TIME AVG. FORCE        456.    
 LARGEST SCALED RESIDUAL FORCE     -9.266E-06   AT NODE       2286   DOF  1
  CORRESPONDING RESIDUAL FORCE     -9.266E-06
 LARGEST INCREMENT OF DISP.          3.00       AT NODE          1   DOF  2
 LARGEST CORRECTION TO DISP.         3.00       AT NODE          1   DOF  2
 ESTIMATE OF DISP.    CORRECTION    5.501E-04
          FORCE     EQUILIB. ACCEPTED BASED ON SMALL RESIDUAL AND ESTIMATED CORRECTION

 AVERAGE MOMENT                     1.750E+05   TIME AVG. MOMENT      1.750E+05
 LARGEST SCALED RESIDUAL MOMENT    -1.136E-03   AT NODE       2285   DOF  5
  CORRESPONDING RESIDUAL MOMENT    -1.136E-03
 LARGEST INCREMENT OF ROTATION     -8.464E-10   AT NODE       2240   DOF  5
 LARGEST CORRECTION TO ROTATION    -8.464E-10   AT NODE       2240   DOF  5
          THE MOMENT    EQUILIBRIUM RESPONSE WAS LINEAR IN THIS INCREMENT

 COMPATIBILITY ERRORS:
    TYPE                NUMBER EXCEEDING TOLERANCE  MAXIMUM ERROR        IN ELEMENT
 VOLUMETRIC                          0               -1.253E-13               2393

 ITERATION SUMMARY FOR THE INCREMENT:   1 TOTAL ITERATIONS, OF WHICH
   0 ARE SEVERE DISCONTINUITY ITERATIONS AND  1 ARE EQUILIBRIUM ITERATIONS.

 TIME INCREMENT COMPLETED  5.000E-02,  FRACTION OF STEP COMPLETED  5.000E-02
 STEP TIME COMPLETED       5.000E-02,  TOTAL TIME COMPLETED         2.05    


  INCREMENT     2 STARTS. ATTEMPT NUMBER  1, TIME INCREMENT  5.000E-02
 
	UNSYMMETRIC PURE THREAD-BASED DIRECT SPARSE SOLVER RUNNING ON
 	1 HOST x 1 MPI RANK PER HOST x 1 THREAD PER RANK
        NUMBER OF EQUATIONS:  2906
        NUMBER OF RHS:        1
        NUMBER OF FLOPS:      9.328e+06
        SOLVER ELAPSED TIME:  20ms

               CONVERGENCE CHECKS FOR EQUILIBRIUM ITERATION     1


 AVERAGE FORCE                       456.       TIME AVG. FORCE        456.    
 LARGEST SCALED RESIDUAL FORCE      9.499E-06   AT NODE       2286   DOF  1
  CORRESPONDING RESIDUAL FORCE      9.499E-06
 LARGEST INCREMENT OF DISP.          3.00       AT NODE          1   DOF  2
 LARGEST CORRECTION TO DISP.       -9.287E-06   AT NODE       2408   DOF  2
          THE FORCE     EQUILIBRIUM EQUATIONS HAVE CONVERGED

 AVERAGE MOMENT                     1.770E+05   TIME AVG. MOMENT      1.760E+05
 LARGEST SCALED RESIDUAL MOMENT     1.165E-03   AT NODE       2285   DOF  5
  CORRESPONDING RESIDUAL MOMENT     1.165E-03
 LARGEST INCREMENT OF ROTATION      1.663E-11   AT NODE       2240   DOF  5
 LARGEST CORRECTION TO ROTATION     8.630E-10   AT NODE       2240   DOF  5
          THE MOMENT    EQUILIBRIUM RESPONSE WAS LINEAR IN THIS INCREMENT

 COMPATIBILITY ERRORS:
    TYPE                NUMBER EXCEEDING TOLERANCE  MAXIMUM ERROR        IN ELEMENT
 VOLUMETRIC                          0               -1.049E-13               2540
          TIME INCREMENT MAY NOW INCREASE TO    7.500E-02

 ITERATION SUMMARY FOR THE INCREMENT:   1 TOTAL ITERATIONS, OF WHICH
   0 ARE SEVERE DISCONTINUITY ITERATIONS AND  1 ARE EQUILIBRIUM ITERATIONS.

 TIME INCREMENT COMPLETED  5.000E-02,  FRACTION OF STEP COMPLETED  0.100    
 STEP TIME COMPLETED       0.100    ,  TOTAL TIME COMPLETED         2.10    


  INCREMENT     3 STARTS. ATTEMPT NUMBER  1, TIME INCREMENT  7.500E-02
 
	UNSYMMETRIC PURE THREAD-BASED DIRECT SPARSE SOLVER RUNNING ON
 	1 HOST x 1 MPI RANK PER HOST x 1 THREAD PER RANK
        NUMBER OF EQUATIONS:  2906
        NUMBER OF RHS:        1
        NUMBER OF FLOPS:      9.328e+06
        SOLVER ELAPSED TIME:  21ms

                    2 SEVERE DISCONTINUITIES OCCURRED DURING THIS ITERATION.
                    2 POINTS CHANGED FROM OPEN TO CLOSED

               CONVERGENCE CHECKS FOR SEVERE DISCONTINUITY ITERATION     1

   MAX. PENETRATION ERROR 59.3710E-03  AT NODE 2035 OF CONTACT PAIR 
   (LOWER_RIM_SLAVE_SURFACE,LOWER_RIM_MASTER_SURFACE)
   MAX. CONTACT FORCE ERROR 3.72226E+03 AT NODE 2035 OF CONTACT PAIR 
   (LOWER_RIM_SLAVE_SURFACE,LOWER_RIM_MASTER_SURFACE)
          PENETRATION ERROR TOO LARGE COMPARED TO DISPLACEMENT INCREMENT.

 AVERAGE FORCE                       528.       TIME AVG. FORCE        480.    
 LARGEST SCALED RESIDUAL FORCE      1.194E+05   AT NODE       2035   DOF  1
  CORRESPONDING RESIDUAL FORCE      1.194E+05
 LARGEST INCREMENT OF DISP.          4.50       AT NODE          1   DOF  2
 LARGEST CORRECTION TO DISP.        5.526E-07   AT NODE       2408   DOF  2
          FORCE     EQUILIBRIUM NOT ACHIEVED WITHIN TOLERANCE.

 AVERAGE MOMENT                     1.839E+05   TIME AVG. MOMENT      1.787E+05
 LARGEST SCALED RESIDUAL MOMENT    -6.120E-05   AT NODE       2285   DOF  5
  CORRESPONDING RESIDUAL MOMENT    -6.120E-05
 LARGEST INCREMENT OF ROTATION     -8.795E-12   AT NODE       2240   DOF  5
 LARGEST CORRECTION TO ROTATION    -3.373E-11   AT NODE       2240   DOF  5
          THE MOMENT    EQUILIBRIUM EQUATIONS HAVE CONVERGED

 COMPATIBILITY ERRORS:
    TYPE                NUMBER EXCEEDING TOLERANCE  MAXIMUM ERROR        IN ELEMENT
 VOLUMETRIC                          0                9.905E-14               2642
 
	UNSYMMETRIC PURE THREAD-BASED DIRECT SPARSE SOLVER RUNNING ON
 	1 HOST x 1 MPI RANK PER HOST x 1 THREAD PER RANK
        NUMBER OF EQUATIONS:  2908
        NUMBER OF RHS:        1
        NUMBER OF FLOPS:      9.240e+06
        SOLVER ELAPSED TIME:  21ms

               CONVERGENCE CHECKS FOR EQUILIBRIUM ITERATION     1


 AVERAGE FORCE                       435.       TIME AVG. FORCE        449.    
 LARGEST SCALED RESIDUAL FORCE       102.       AT NODE       2005   DOF  1
  CORRESPONDING RESIDUAL FORCE       102.    
 LARGEST INCREMENT OF DISP.          4.50       AT NODE          1   DOF  2
 LARGEST CORRECTION TO DISP.        0.336       AT NODE       2035   DOF  2
          FORCE     EQUILIBRIUM NOT ACHIEVED WITHIN TOLERANCE.

 AVERAGE MOMENT                     1.768E+05   TIME AVG. MOMENT      1.763E+05
 LARGEST SCALED RESIDUAL MOMENT     -4.10       AT NODE       2244   DOF  5
  CORRESPONDING RESIDUAL MOMENT     -4.10    
 LARGEST INCREMENT OF ROTATION     -3.977E-07   AT NODE       2250   DOF  5
 LARGEST CORRECTION TO ROTATION    -3.977E-07   AT NODE       2250   DOF  5
          ROTATION CORRECTION TOO LARGE COMPARED TO ROTATION INCREMENT

 COMPATIBILITY ERRORS:
    TYPE                NUMBER EXCEEDING TOLERANCE  MAXIMUM ERROR        IN ELEMENT
 VOLUMETRIC                         76               -3.813E-05               2031
 
	UNSYMMETRIC PURE THREAD-BASED DIRECT SPARSE SOLVER RUNNING ON
 	1 HOST x 1 MPI RANK PER HOST x 1 THREAD PER RANK
        NUMBER OF EQUATIONS:  2908
        NUMBER OF RHS:        1
        NUMBER OF FLOPS:      9.240e+06
        SOLVER ELAPSED TIME:  9ms

               CONVERGENCE CHECKS FOR EQUILIBRIUM ITERATION     2


 AVERAGE FORCE                       457.       TIME AVG. FORCE        456.    
 LARGEST SCALED RESIDUAL FORCE      2.773E-02   AT NODE       2011   DOF  2
  CORRESPONDING RESIDUAL FORCE      2.773E-02
 LARGEST INCREMENT OF DISP.          4.50       AT NODE          1   DOF  2
 LARGEST CORRECTION TO DISP.        1.304E-03   AT NODE       2147   DOF  2
          THE FORCE     EQUILIBRIUM EQUATIONS HAVE CONVERGED

 AVERAGE MOMENT                     1.768E+05   TIME AVG. MOMENT      1.763E+05
 LARGEST SCALED RESIDUAL MOMENT     5.459E-03   AT NODE       2245   DOF  5
  CORRESPONDING RESIDUAL MOMENT     5.459E-03
 LARGEST INCREMENT OF ROTATION     -3.991E-07   AT NODE       2250   DOF  5
 LARGEST CORRECTION TO ROTATION    -5.117E-09   AT NODE       2240   DOF  5
          THE MOMENT    EQUILIBRIUM EQUATIONS HAVE CONVERGED

 COMPATIBILITY ERRORS:
    TYPE                NUMBER EXCEEDING TOLERANCE  MAXIMUM ERROR        IN ELEMENT
 VOLUMETRIC                          0                1.644E-09               2471
          TIME INCREMENT MAY NOW INCREASE TO    0.113    

 ITERATION SUMMARY FOR THE INCREMENT:   3 TOTAL ITERATIONS, OF WHICH
   1 ARE SEVERE DISCONTINUITY ITERATIONS AND  2 ARE EQUILIBRIUM ITERATIONS.

 TIME INCREMENT COMPLETED  7.500E-02,  FRACTION OF STEP COMPLETED  0.175    
 STEP TIME COMPLETED       0.175    ,  TOTAL TIME COMPLETED         2.17    


  INCREMENT     4 STARTS. ATTEMPT NUMBER  1, TIME INCREMENT  0.113    
 
	UNSYMMETRIC PURE THREAD-BASED DIRECT SPARSE SOLVER RUNNING ON
 	1 HOST x 1 MPI RANK PER HOST x 1 THREAD PER RANK
        NUMBER OF EQUATIONS:  2908
        NUMBER OF RHS:        1
        NUMBER OF FLOPS:      9.240e+06
        SOLVER ELAPSED TIME:  21ms

               CONVERGENCE CHECKS FOR EQUILIBRIUM ITERATION     1


 AVERAGE FORCE                       482.       TIME AVG. FORCE        463.    
 LARGEST SCALED RESIDUAL FORCE      7.581E+03   AT NODE       2357   DOF  1
  CORRESPONDING RESIDUAL FORCE      7.581E+03
 LARGEST INCREMENT OF DISP.          6.75       AT NODE          1   DOF  2
 LARGEST CORRECTION TO DISP.        -2.65       AT NODE       2408   DOF  2
          FORCE     EQUILIBRIUM NOT ACHIEVED WITHIN TOLERANCE.

 AVERAGE MOMENT                     1.766E+05   TIME AVG. MOMENT      1.763E+05
 LARGEST SCALED RESIDUAL MOMENT     -368.       AT NODE       2244   DOF  5
  CORRESPONDING RESIDUAL MOMENT     -368.    
 LARGEST INCREMENT OF ROTATION     -5.119E-06   AT NODE       2237   DOF  5
 LARGEST CORRECTION TO ROTATION    -4.540E-06   AT NODE       2237   DOF  5
          ROTATION CORRECTION TOO LARGE COMPARED TO ROTATION INCREMENT

 COMPATIBILITY ERRORS:
    TYPE                NUMBER EXCEEDING TOLERANCE  MAXIMUM ERROR        IN ELEMENT
 VOLUMETRIC                        380               -2.052E-03               2073
 
	UNSYMMETRIC PURE THREAD-BASED DIRECT SPARSE SOLVER RUNNING ON
 	1 HOST x 1 MPI RANK PER HOST x 1 THREAD PER RANK
        NUMBER OF EQUATIONS:  2908
        NUMBER OF RHS:        1
        NUMBER OF FLOPS:      9.240e+06
        SOLVER ELAPSED TIME:  20ms

               CONVERGENCE CHECKS FOR EQUILIBRIUM ITERATION     2


 AVERAGE FORCE                       457.       TIME AVG. FORCE        456.    
 LARGEST SCALED RESIDUAL FORCE      -98.5       AT NODE       2495   DOF  1
  CORRESPONDING RESIDUAL FORCE      -98.5    
 LARGEST INCREMENT OF DISP.          6.75       AT NODE          1   DOF  2
 LARGEST CORRECTION TO DISP.        0.102       AT NODE       2149   DOF  2
          FORCE     EQUILIBRIUM NOT ACHIEVED WITHIN TOLERANCE.

 AVERAGE MOMENT                     1.766E+05   TIME AVG. MOMENT      1.764E+05
 LARGEST SCALED RESIDUAL MOMENT      15.5       AT NODE       2575   DOF  5
  CORRESPONDING RESIDUAL MOMENT      15.5    
 LARGEST INCREMENT OF ROTATION     -5.846E-06   AT NODE       2237   DOF  5
 LARGEST CORRECTION TO ROTATION     1.226E-06   AT NODE       2583   DOF  5
          ROTATION CORRECTION TOO LARGE COMPARED TO ROTATION INCREMENT

 COMPATIBILITY ERRORS:
    TYPE                NUMBER EXCEEDING TOLERANCE  MAXIMUM ERROR        IN ELEMENT
 VOLUMETRIC                          0               -7.171E-06               2030
 
	UNSYMMETRIC PURE THREAD-BASED DIRECT SPARSE SOLVER RUNNING ON
 	1 HOST x 1 MPI RANK PER HOST x 1 THREAD PER RANK
        NUMBER OF EQUATIONS:  2908
        NUMBER OF RHS:        1
        NUMBER OF FLOPS:      9.240e+06
        SOLVER ELAPSED TIME:  20ms

               CONVERGENCE CHECKS FOR EQUILIBRIUM ITERATION     3


 AVERAGE FORCE                       457.       TIME AVG. FORCE        456.    
 LARGEST SCALED RESIDUAL FORCE       211.       AT NODE       2164   DOF  1
  CORRESPONDING RESIDUAL FORCE       211.    
 LARGEST INCREMENT OF DISP.          6.75       AT NODE          1   DOF  2
 LARGEST CORRECTION TO DISP.        0.453       AT NODE       2132   DOF  2
          FORCE     EQUILIBRIUM NOT ACHIEVED WITHIN TOLERANCE.

 AVERAGE MOMENT                     1.770E+05   TIME AVG. MOMENT      1.765E+05
 LARGEST SCALED RESIDUAL MOMENT     -1.22       AT NODE       2245   DOF  5
  CORRESPONDING RESIDUAL MOMENT     -1.22    
 LARGEST INCREMENT OF ROTATION     -5.254E-06   AT NODE       2237   DOF  5
 LARGEST CORRECTION TO ROTATION    -1.041E-06   AT NODE       2583   DOF  5
          ROTATION CORRECTION TOO LARGE COMPARED TO ROTATION INCREMENT

 COMPATIBILITY ERRORS:
    TYPE                NUMBER EXCEEDING TOLERANCE  MAXIMUM ERROR        IN ELEMENT
 VOLUMETRIC                         88               -1.637E-04               2367
 
	UNSYMMETRIC PURE THREAD-BASED DIRECT SPARSE SOLVER RUNNING ON
 	1 HOST x 1 MPI RANK PER HOST x 1 THREAD PER RANK
        NUMBER OF EQUATIONS:  2908
        NUMBER OF RHS:        1
        NUMBER OF FLOPS:      9.240e+06
        SOLVER ELAPSED TIME:  20ms

               CONVERGENCE CHECKS FOR EQUILIBRIUM ITERATION     4


 AVERAGE FORCE                       469.       TIME AVG. FORCE        460.    
 LARGEST SCALED RESIDUAL FORCE       23.4       AT NODE       2124   DOF  1
  CORRESPONDING RESIDUAL FORCE       23.4    
 LARGEST INCREMENT OF DISP.          6.75       AT NODE          1   DOF  2
 LARGEST CORRECTION TO DISP.        1.225E-02   AT NODE       2143   DOF  2
          FORCE     EQUILIBRIUM NOT ACHIEVED WITHIN TOLERANCE.

 AVERAGE MOMENT                     1.770E+05   TIME AVG. MOMENT      1.765E+05
 LARGEST SCALED RESIDUAL MOMENT    -0.132       AT NODE       2250   DOF  5
  CORRESPONDING RESIDUAL MOMENT    -0.132    
 LARGEST INCREMENT OF ROTATION     -5.374E-06   AT NODE       2237   DOF  5
 LARGEST CORRECTION TO ROTATION    -1.377E-07   AT NODE       2240   DOF  5
 ESTIMATE OF ROTATION CORRECTION   -1.486E-08
          MOMENT    EQUILIB. ACCEPTED BASED ON SMALL RESIDUAL AND ESTIMATED CORRECTION

 COMPATIBILITY ERRORS:
    TYPE                NUMBER EXCEEDING TOLERANCE  MAXIMUM ERROR        IN ELEMENT
 VOLUMETRIC                          0               -1.674E-07               2025
 
	UNSYMMETRIC PURE THREAD-BASED DIRECT SPARSE SOLVER RUNNING ON
 	1 HOST x 1 MPI RANK PER HOST x 1 THREAD PER RANK
        NUMBER OF EQUATIONS:  2908
        NUMBER OF RHS:        1
        NUMBER OF FLOPS:      9.240e+06
        SOLVER ELAPSED TIME:  21ms

               CONVERGENCE CHECKS FOR EQUILIBRIUM ITERATION     5


 AVERAGE FORCE                       469.       TIME AVG. FORCE        460.    
 LARGEST SCALED RESIDUAL FORCE      0.135       AT NODE       2123   DOF  1
  CORRESPONDING RESIDUAL FORCE      0.135    
 LARGEST INCREMENT OF DISP.          6.75       AT NODE          1   DOF  2
 LARGEST CORRECTION TO DISP.        8.813E-03   AT NODE       2121   DOF  2
          THE FORCE     EQUILIBRIUM EQUATIONS HAVE CONVERGED

 AVERAGE MOMENT                     1.770E+05   TIME AVG. MOMENT      1.765E+05
 LARGEST SCALED RESIDUAL MOMENT     1.298E-02   AT NODE       2250   DOF  5
  CORRESPONDING RESIDUAL MOMENT     1.298E-02
 LARGEST INCREMENT OF ROTATION     -5.371E-06   AT NODE       2237   DOF  5
 LARGEST CORRECTION TO ROTATION    -8.299E-09   AT NODE       2250   DOF  5
          THE MOMENT    EQUILIBRIUM EQUATIONS HAVE CONVERGED

 COMPATIBILITY ERRORS:
    TYPE                NUMBER EXCEEDING TOLERANCE  MAXIMUM ERROR        IN ELEMENT
 VOLUMETRIC                          0               -1.656E-07               2363

 ITERATION SUMMARY FOR THE INCREMENT:   5 TOTAL ITERATIONS, OF WHICH
   0 ARE SEVERE DISCONTINUITY ITERATIONS AND  5 ARE EQUILIBRIUM ITERATIONS.

 TIME INCREMENT COMPLETED  0.113    ,  FRACTION OF STEP COMPLETED  0.288    
 STEP TIME COMPLETED       0.288    ,  TOTAL TIME COMPLETED         2.29    


  INCREMENT     5 STARTS. ATTEMPT NUMBER  1, TIME INCREMENT  0.113    
 
	UNSYMMETRIC PURE THREAD-BASED DIRECT SPARSE SOLVER RUNNING ON
 	1 HOST x 1 MPI RANK PER HOST x 1 THREAD PER RANK
        NUMBER OF EQUATIONS:  2908
        NUMBER OF RHS:        1
        NUMBER OF FLOPS:      9.240e+06
        SOLVER ELAPSED TIME:  21ms

               CONVERGENCE CHECKS FOR EQUILIBRIUM ITERATION     1


 AVERAGE FORCE                       461.       TIME AVG. FORCE        460.    
 LARGEST SCALED RESIDUAL FORCE      3.457E+03   AT NODE       2428   DOF  2
  CORRESPONDING RESIDUAL FORCE      3.457E+03
 LARGEST INCREMENT OF DISP.          6.75       AT NODE          1   DOF  2
 LARGEST CORRECTION TO DISP.       -0.119       AT NODE       2567   DOF  2
          FORCE     EQUILIBRIUM NOT ACHIEVED WITHIN TOLERANCE.

 AVERAGE MOMENT                     1.761E+05   TIME AVG. MOMENT      1.764E+05
 LARGEST SCALED RESIDUAL MOMENT     -293.       AT NODE       2428   DOF  5
  CORRESPONDING RESIDUAL MOMENT     -293.    
 LARGEST INCREMENT OF ROTATION     -1.011E-05   AT NODE       2237   DOF  5
 LARGEST CORRECTION TO ROTATION    -5.278E-06   AT NODE       2240   DOF  5
          ROTATION CORRECTION TOO LARGE COMPARED TO ROTATION INCREMENT

 COMPATIBILITY ERRORS:
    TYPE                NUMBER EXCEEDING TOLERANCE  MAXIMUM ERROR        IN ELEMENT
 VOLUMETRIC                         78               -8.540E-05               2435
 
	UNSYMMETRIC PURE THREAD-BASED DIRECT SPARSE SOLVER RUNNING ON
 	1 HOST x 1 MPI RANK PER HOST x 1 THREAD PER RANK
        NUMBER OF EQUATIONS:  2908
        NUMBER OF RHS:        1
        NUMBER OF FLOPS:      9.240e+06
        SOLVER ELAPSED TIME:  21ms

               CONVERGENCE CHECKS FOR EQUILIBRIUM ITERATION     2

   MAX. PENETRATION ERROR -56.6287E-15  AT NODE 2408 OF CONTACT PAIR 
   (UPPER_RIM_SLAVE_SURFACE,UPPER_RIM_MASTER_SURFACE)
   MAX. CONTACT FORCE ERROR -3.61885E-09 AT NODE 2408 OF CONTACT PAIR 
   (UPPER_RIM_SLAVE_SURFACE,UPPER_RIM_MASTER_SURFACE)
          THE CONTACT CONSTRAINTS HAVE CONVERGED.

 AVERAGE FORCE                       481.       TIME AVG. FORCE        464.    
 LARGEST SCALED RESIDUAL FORCE      7.503E+03   AT NODE       2123   DOF  1
  CORRESPONDING RESIDUAL FORCE      7.503E+03
 LARGEST INCREMENT OF DISP.          6.75       AT NODE          1   DOF  2
 LARGEST CORRECTION TO DISP.        0.294       AT NODE       2140   DOF  2
          FORCE     EQUILIBRIUM NOT ACHIEVED WITHIN TOLERANCE.

 AVERAGE MOMENT                     1.767E+05   TIME AVG. MOMENT      1.765E+05
 LARGEST SCALED RESIDUAL MOMENT      10.9       AT NODE       2594   DOF  5
  CORRESPONDING RESIDUAL MOMENT      10.9    
 LARGEST INCREMENT OF ROTATION     -8.996E-06   AT NODE       2237   DOF  5
 LARGEST CORRECTION TO ROTATION     4.376E-06   AT NODE       2583   DOF  5
          ROTATION CORRECTION TOO LARGE COMPARED TO ROTATION INCREMENT

 COMPATIBILITY ERRORS:
    TYPE                NUMBER EXCEEDING TOLERANCE  MAXIMUM ERROR        IN ELEMENT
 VOLUMETRIC                         55               -3.605E-04               2476
 
	UNSYMMETRIC PURE THREAD-BASED DIRECT SPARSE SOLVER RUNNING ON
 	1 HOST x 1 MPI RANK PER HOST x 1 THREAD PER RANK
        NUMBER OF EQUATIONS:  2908
        NUMBER OF RHS:        1
        NUMBER OF FLOPS:      9.240e+06
        SOLVER ELAPSED TIME:  21ms

               CONVERGENCE CHECKS FOR EQUILIBRIUM ITERATION     3


 AVERAGE FORCE                       475.       TIME AVG. FORCE        463.    
 LARGEST SCALED RESIDUAL FORCE      1.028E+03   AT NODE       2527   DOF  1
  CORRESPONDING RESIDUAL FORCE      1.028E+03
 LARGEST INCREMENT OF DISP.          6.75       AT NODE          1   DOF  2
 LARGEST CORRECTION TO DISP.       -0.159       AT NODE       2157   DOF  2
          FORCE     EQUILIBRIUM NOT ACHIEVED WITHIN TOLERANCE.

 AVERAGE MOMENT                     1.767E+05   TIME AVG. MOMENT      1.765E+05
 LARGEST SCALED RESIDUAL MOMENT     -4.15       AT NODE       2250   DOF  5
  CORRESPONDING RESIDUAL MOMENT     -4.15    
 LARGEST INCREMENT OF ROTATION     -1.015E-05   AT NODE       2240   DOF  5
 LARGEST CORRECTION TO ROTATION    -1.490E-06   AT NODE       2240   DOF  5
          ROTATION CORRECTION TOO LARGE COMPARED TO ROTATION INCREMENT

 COMPATIBILITY ERRORS:
    TYPE                NUMBER EXCEEDING TOLERANCE  MAXIMUM ERROR        IN ELEMENT
 VOLUMETRIC                         32               -1.004E-04               2476
 
	UNSYMMETRIC PURE THREAD-BASED DIRECT SPARSE SOLVER RUNNING ON
 	1 HOST x 1 MPI RANK PER HOST x 1 THREAD PER RANK
        NUMBER OF EQUATIONS:  2908
        NUMBER OF RHS:        1
        NUMBER OF FLOPS:      9.240e+06
        SOLVER ELAPSED TIME:  20ms

               CONVERGENCE CHECKS FOR EQUILIBRIUM ITERATION     4


 AVERAGE FORCE                       481.       TIME AVG. FORCE        464.    
 LARGEST SCALED RESIDUAL FORCE      7.389E+03   AT NODE       2123   DOF  1
  CORRESPONDING RESIDUAL FORCE      7.389E+03
 LARGEST INCREMENT OF DISP.          6.75       AT NODE          1   DOF  2
 LARGEST CORRECTION TO DISP.       -0.212       AT NODE       2520   DOF  2
          FORCE     EQUILIBRIUM NOT ACHIEVED WITHIN TOLERANCE.

 AVERAGE MOMENT                     1.766E+05   TIME AVG. MOMENT      1.765E+05
 LARGEST SCALED RESIDUAL MOMENT      7.99       AT NODE       2236   DOF  5
  CORRESPONDING RESIDUAL MOMENT      7.99    
 LARGEST INCREMENT OF ROTATION     -8.579E-06   AT NODE       2237   DOF  5
 LARGEST CORRECTION TO ROTATION     1.973E-06   AT NODE       2240   DOF  5
          ROTATION CORRECTION TOO LARGE COMPARED TO ROTATION INCREMENT

 COMPATIBILITY ERRORS:
    TYPE                NUMBER EXCEEDING TOLERANCE  MAXIMUM ERROR        IN ELEMENT
 VOLUMETRIC                         42               -8.544E-05               2525
 
	UNSYMMETRIC PURE THREAD-BASED DIRECT SPARSE SOLVER RUNNING ON
 	1 HOST x 1 MPI RANK PER HOST x 1 THREAD PER RANK
        NUMBER OF EQUATIONS:  2908
        NUMBER OF RHS:        1
        NUMBER OF FLOPS:      9.240e+06
        SOLVER ELAPSED TIME:  8ms

               CONVERGENCE CHECKS FOR EQUILIBRIUM ITERATION     5


 AVERAGE FORCE                       470.       TIME AVG. FORCE        462.    
 LARGEST SCALED RESIDUAL FORCE       495.       AT NODE       2165   DOF  1
  CORRESPONDING RESIDUAL FORCE       495.    
 LARGEST INCREMENT OF DISP.          6.75       AT NODE          1   DOF  2
[...]
 LARGEST CORRECTION TO ROTATION    -4.227E-08   AT NODE       2240   DOF  5
          THE MOMENT    EQUILIBRIUM EQUATIONS HAVE CONVERGED

 COMPATIBILITY ERRORS:
    TYPE                NUMBER EXCEEDING TOLERANCE  MAXIMUM ERROR        IN ELEMENT
 VOLUMETRIC                          0                8.027E-06               2338
 
	UNSYMMETRIC PURE THREAD-BASED DIRECT SPARSE SOLVER RUNNING ON
 	1 HOST x 1 MPI RANK PER HOST x 1 THREAD PER RANK
        NUMBER OF EQUATIONS:  2926
        NUMBER OF RHS:        1
        NUMBER OF FLOPS:      9.508e+06
        SOLVER ELAPSED TIME:  21ms

               CONVERGENCE CHECKS FOR EQUILIBRIUM ITERATION     7

   MAX. PENETRATION ERROR 269.332E-09   AT NODE 2026 OF CONTACT PAIR 
   (LOWER_RIM_SLAVE_SURFACE,LOWER_RIM_MASTER_SURFACE)
   MAX. CONTACT FORCE ERROR 53.0730E-03  AT NODE 2026 OF CONTACT PAIR 
   (LOWER_RIM_SLAVE_SURFACE,LOWER_RIM_MASTER_SURFACE)
          THE CONTACT CONSTRAINTS HAVE CONVERGED.

 AVERAGE FORCE                      1.767E+03   TIME AVG. FORCE        749.    
 LARGEST SCALED RESIDUAL FORCE       394.       AT NODE       2048   DOF  1
  CORRESPONDING RESIDUAL FORCE       394.    
 LARGEST INCREMENT OF DISP.          1.15       AT NODE       2720   DOF  1
 LARGEST CORRECTION TO DISP.        1.072E-02   AT NODE       2020   DOF  1
          FORCE     EQUILIBRIUM NOT ACHIEVED WITHIN TOLERANCE.

 AVERAGE MOMENT                     7.447E+05   TIME AVG. MOMENT      1.936E+05
 LARGEST SCALED RESIDUAL MOMENT     7.075E-02   AT NODE       2297   DOF  5
  CORRESPONDING RESIDUAL MOMENT     7.075E-02
 LARGEST INCREMENT OF ROTATION      3.161E-04   AT NODE       2240   DOF  5
 LARGEST CORRECTION TO ROTATION     4.227E-08   AT NODE       2240   DOF  5
          THE MOMENT    EQUILIBRIUM EQUATIONS HAVE CONVERGED

 COMPATIBILITY ERRORS:
    TYPE                NUMBER EXCEEDING TOLERANCE  MAXIMUM ERROR        IN ELEMENT
 VOLUMETRIC                          0                8.033E-06               2338
 
	UNSYMMETRIC PURE THREAD-BASED DIRECT SPARSE SOLVER RUNNING ON
 	1 HOST x 1 MPI RANK PER HOST x 1 THREAD PER RANK
        NUMBER OF EQUATIONS:  2926
        NUMBER OF RHS:        1
        NUMBER OF FLOPS:      9.508e+06
        SOLVER ELAPSED TIME:  21ms

               CONVERGENCE CHECKS FOR EQUILIBRIUM ITERATION     8

   MAX. PENETRATION ERROR 269.332E-09   AT NODE 2026 OF CONTACT PAIR 
   (LOWER_RIM_SLAVE_SURFACE,LOWER_RIM_MASTER_SURFACE)
   MAX. CONTACT FORCE ERROR 53.0796E-03  AT NODE 2026 OF CONTACT PAIR 
   (LOWER_RIM_SLAVE_SURFACE,LOWER_RIM_MASTER_SURFACE)
          THE CONTACT CONSTRAINTS HAVE CONVERGED.

 AVERAGE FORCE                      1.775E+03   TIME AVG. FORCE        749.    
 LARGEST SCALED RESIDUAL FORCE      4.958E+03   AT NODE       2025   DOF  1
  CORRESPONDING RESIDUAL FORCE      4.958E+03
 LARGEST INCREMENT OF DISP.          1.15       AT NODE       2720   DOF  1
 LARGEST CORRECTION TO DISP.       -1.072E-02   AT NODE       2020   DOF  1
          FORCE     EQUILIBRIUM NOT ACHIEVED WITHIN TOLERANCE.

 AVERAGE MOMENT                     7.446E+05   TIME AVG. MOMENT      1.936E+05
 LARGEST SCALED RESIDUAL MOMENT    -8.074E-02   AT NODE       2297   DOF  5
  CORRESPONDING RESIDUAL MOMENT    -8.074E-02
 LARGEST INCREMENT OF ROTATION      3.160E-04   AT NODE       2240   DOF  5
 LARGEST CORRECTION TO ROTATION    -4.227E-08   AT NODE       2240   DOF  5
          THE MOMENT    EQUILIBRIUM EQUATIONS HAVE CONVERGED

 COMPATIBILITY ERRORS:
    TYPE                NUMBER EXCEEDING TOLERANCE  MAXIMUM ERROR        IN ELEMENT
 VOLUMETRIC                          0                8.027E-06               2338
 

 ***NOTE: THE SOLUTION APPEARS TO BE DIVERGING. CONVERGENCE IS JUDGED UNLIKELY.


  INCREMENT    19 STARTS. ATTEMPT NUMBER  2, TIME INCREMENT  7.602E-02
 
	UNSYMMETRIC PURE THREAD-BASED DIRECT SPARSE SOLVER RUNNING ON
 	1 HOST x 1 MPI RANK PER HOST x 1 THREAD PER RANK
        NUMBER OF EQUATIONS:  2922
        NUMBER OF RHS:        1
        NUMBER OF FLOPS:      9.479e+06
        SOLVER ELAPSED TIME:  21ms

                    2 SEVERE DISCONTINUITIES OCCURRED DURING THIS ITERATION.
                    2 POINTS CHANGED FROM OPEN TO CLOSED

               CONVERGENCE CHECKS FOR SEVERE DISCONTINUITY ITERATION     1

   MAX. PENETRATION ERROR 28.9412E-03  AT NODE 2404 OF CONTACT PAIR 
   (UPPER_RIM_SLAVE_SURFACE,UPPER_RIM_MASTER_SURFACE)
   MAX. CONTACT FORCE ERROR 5.25654E+03 AT NODE 2404 OF CONTACT PAIR 
   (UPPER_RIM_SLAVE_SURFACE,UPPER_RIM_MASTER_SURFACE)
          PENETRATION ERROR TOO LARGE COMPARED TO DISPLACEMENT INCREMENT.

 AVERAGE FORCE                      1.523E+03   TIME AVG. FORCE        736.    
 LARGEST SCALED RESIDUAL FORCE     -1.374E+05   AT NODE       2404   DOF  2
  CORRESPONDING RESIDUAL FORCE     -1.374E+05
 LARGEST INCREMENT OF DISP.         0.309       AT NODE       2720   DOF  1
 LARGEST CORRECTION TO DISP.        9.437E-02   AT NODE       2045   DOF  2
          FORCE     EQUILIBRIUM NOT ACHIEVED WITHIN TOLERANCE.

 AVERAGE MOMENT                     5.820E+05   TIME AVG. MOMENT      1.851E+05
 LARGEST SCALED RESIDUAL MOMENT     -651.       AT NODE       2666   DOF  5
  CORRESPONDING RESIDUAL MOMENT     -651.    
 LARGEST INCREMENT OF ROTATION      8.053E-05   AT NODE       2240   DOF  5
 LARGEST CORRECTION TO ROTATION    -7.408E-06   AT NODE       2632   DOF  5
 ESTIMATE OF ROTATION CORRECTION   -1.861E-08
          MOMENT    EQUILIB. ACCEPTED BASED ON SMALL RESIDUAL AND ESTIMATED CORRECTION

 COMPATIBILITY ERRORS:
    TYPE                NUMBER EXCEEDING TOLERANCE  MAXIMUM ERROR        IN ELEMENT
 VOLUMETRIC                         24                8.787E-05               2106
 
	UNSYMMETRIC PURE THREAD-BASED DIRECT SPARSE SOLVER RUNNING ON
 	1 HOST x 1 MPI RANK PER HOST x 1 THREAD PER RANK
        NUMBER OF EQUATIONS:  2924
        NUMBER OF RHS:        1
        NUMBER OF FLOPS:      9.493e+06
        SOLVER ELAPSED TIME:  21ms

               CONVERGENCE CHECKS FOR EQUILIBRIUM ITERATION     1

   MAX. PENETRATION ERROR 27.4944E-06  AT NODE 2400 OF CONTACT PAIR 
   (UPPER_RIM_SLAVE_SURFACE,UPPER_RIM_MASTER_SURFACE)
   MAX. CONTACT FORCE ERROR 5.43782     AT NODE 2400 OF CONTACT PAIR 
   (UPPER_RIM_SLAVE_SURFACE,UPPER_RIM_MASTER_SURFACE)
          THE CONTACT CONSTRAINTS HAVE CONVERGED.

 AVERAGE FORCE                      1.430E+03   TIME AVG. FORCE        731.    
 LARGEST SCALED RESIDUAL FORCE       167.       AT NODE       2400   DOF  1
  CORRESPONDING RESIDUAL FORCE       167.    
 LARGEST INCREMENT OF DISP.         0.309       AT NODE       2720   DOF  1
 LARGEST CORRECTION TO DISP.       -2.488E-02   AT NODE       2404   DOF  2
          FORCE     EQUILIBRIUM NOT ACHIEVED WITHIN TOLERANCE.

 AVERAGE MOMENT                     5.345E+05   TIME AVG. MOMENT      1.826E+05
 LARGEST SCALED RESIDUAL MOMENT     -2.51       AT NODE       2250   DOF  5
  CORRESPONDING RESIDUAL MOMENT     -2.51    
 LARGEST INCREMENT OF ROTATION      7.994E-05   AT NODE       2240   DOF  5
 LARGEST CORRECTION TO ROTATION    -5.983E-07   AT NODE       2240   DOF  5
          THE MOMENT    EQUILIBRIUM EQUATIONS HAVE CONVERGED

 COMPATIBILITY ERRORS:
    TYPE                NUMBER EXCEEDING TOLERANCE  MAXIMUM ERROR        IN ELEMENT
 VOLUMETRIC                          8                2.054E-05               2118
 
	UNSYMMETRIC PURE THREAD-BASED DIRECT SPARSE SOLVER RUNNING ON
 	1 HOST x 1 MPI RANK PER HOST x 1 THREAD PER RANK
        NUMBER OF EQUATIONS:  2924
        NUMBER OF RHS:        1
        NUMBER OF FLOPS:      9.493e+06
        SOLVER ELAPSED TIME:  12ms

               CONVERGENCE CHECKS FOR EQUILIBRIUM ITERATION     2

   MAX. PENETRATION ERROR 2.68627E-09 AT NODE 2400 OF CONTACT PAIR 
   (UPPER_RIM_SLAVE_SURFACE,UPPER_RIM_MASTER_SURFACE)
   MAX. CONTACT FORCE ERROR 531.287E-06   AT NODE 2400 OF CONTACT PAIR 
   (UPPER_RIM_SLAVE_SURFACE,UPPER_RIM_MASTER_SURFACE)
          THE CONTACT CONSTRAINTS HAVE CONVERGED.

 AVERAGE FORCE                      1.436E+03   TIME AVG. FORCE        731.    
 LARGEST SCALED RESIDUAL FORCE      0.461       AT NODE       2401   DOF  1
  CORRESPONDING RESIDUAL FORCE      0.461    
 LARGEST INCREMENT OF DISP.         0.309       AT NODE       2720   DOF  1
 LARGEST CORRECTION TO DISP.        1.627E-04   AT NODE       2400   DOF  2
          THE FORCE     EQUILIBRIUM EQUATIONS HAVE CONVERGED

 AVERAGE MOMENT                     5.345E+05   TIME AVG. MOMENT      1.826E+05
 LARGEST SCALED RESIDUAL MOMENT     2.293E-03   AT NODE       2260   DOF  5
  CORRESPONDING RESIDUAL MOMENT     2.293E-03
 LARGEST INCREMENT OF ROTATION      7.993E-05   AT NODE       2240   DOF  5
 LARGEST CORRECTION TO ROTATION     2.973E-09   AT NODE       2583   DOF  5
          THE MOMENT    EQUILIBRIUM EQUATIONS HAVE CONVERGED

 COMPATIBILITY ERRORS:
    TYPE                NUMBER EXCEEDING TOLERANCE  MAXIMUM ERROR        IN ELEMENT
 VOLUMETRIC                          0               -1.574E-09               2120
          TIME INCREMENT MAY NOW INCREASE TO    0.114    

 ITERATION SUMMARY FOR THE INCREMENT:   3 TOTAL ITERATIONS, OF WHICH
   1 ARE SEVERE DISCONTINUITY ITERATIONS AND  2 ARE EQUILIBRIUM ITERATIONS.

 TIME INCREMENT COMPLETED  7.602E-02,  FRACTION OF STEP COMPLETED  0.725    
 STEP TIME COMPLETED       0.725    ,  TOTAL TIME COMPLETED         3.73    


  INCREMENT    20 STARTS. ATTEMPT NUMBER  1, TIME INCREMENT  0.114    
 
	UNSYMMETRIC PURE THREAD-BASED DIRECT SPARSE SOLVER RUNNING ON
 	1 HOST x 1 MPI RANK PER HOST x 1 THREAD PER RANK
        NUMBER OF EQUATIONS:  2924
        NUMBER OF RHS:        1
        NUMBER OF FLOPS:      9.493e+06
        SOLVER ELAPSED TIME:  21ms

               CONVERGENCE CHECKS FOR EQUILIBRIUM ITERATION     1

   MAX. PENETRATION ERROR 4.75171E-06 AT NODE 2026 OF CONTACT PAIR 
   (LOWER_RIM_SLAVE_SURFACE,LOWER_RIM_MASTER_SURFACE)
   MAX. CONTACT FORCE ERROR 937.196E-03   AT NODE 2026 OF CONTACT PAIR 
   (LOWER_RIM_SLAVE_SURFACE,LOWER_RIM_MASTER_SURFACE)
          THE CONTACT CONSTRAINTS HAVE CONVERGED.

 AVERAGE FORCE                      1.590E+03   TIME AVG. FORCE        774.    
 LARGEST SCALED RESIDUAL FORCE       27.1       AT NODE       2026   DOF  1
  CORRESPONDING RESIDUAL FORCE       27.1    
 LARGEST INCREMENT OF DISP.         0.436       AT NODE       2720   DOF  1
 LARGEST CORRECTION TO DISP.       -2.685E-02   AT NODE       2723   DOF  1
          FORCE     EQUILIBRIUM NOT ACHIEVED WITHIN TOLERANCE.

 AVERAGE MOMENT                     6.387E+05   TIME AVG. MOMENT      2.054E+05
 LARGEST SCALED RESIDUAL MOMENT     1.013E+03   AT NODE       2666   DOF  5
  CORRESPONDING RESIDUAL MOMENT     1.013E+03
 LARGEST INCREMENT OF ROTATION      1.189E-04   AT NODE       2240   DOF  5
 LARGEST CORRECTION TO ROTATION    -7.950E-06   AT NODE       2433   DOF  5
 ESTIMATE OF ROTATION CORRECTION    7.538E-08
          MOMENT    EQUILIB. ACCEPTED BASED ON SMALL RESIDUAL AND ESTIMATED CORRECTION

 COMPATIBILITY ERRORS:
    TYPE                NUMBER EXCEEDING TOLERANCE  MAXIMUM ERROR        IN ELEMENT
 VOLUMETRIC                          1               -1.081E-05               2449
 
	UNSYMMETRIC PURE THREAD-BASED DIRECT SPARSE SOLVER RUNNING ON
 	1 HOST x 1 MPI RANK PER HOST x 1 THREAD PER RANK
        NUMBER OF EQUATIONS:  2924
        NUMBER OF RHS:        1
        NUMBER OF FLOPS:      9.493e+06
        SOLVER ELAPSED TIME:  21ms

               CONVERGENCE CHECKS FOR EQUILIBRIUM ITERATION     2

   MAX. PENETRATION ERROR -84.4144E-12  AT NODE 2098 OF CONTACT PAIR 
   (LOWER_RIM_SLAVE_SURFACE,LOWER_RIM_MASTER_SURFACE)
   MAX. CONTACT FORCE ERROR -12.0443E-06  AT NODE 2098 OF CONTACT PAIR 
   (LOWER_RIM_SLAVE_SURFACE,LOWER_RIM_MASTER_SURFACE)
          THE CONTACT CONSTRAINTS HAVE CONVERGED.

 AVERAGE FORCE                      1.603E+03   TIME AVG. FORCE        775.    
 LARGEST SCALED RESIDUAL FORCE      0.120       AT NODE       2027   DOF  1
  CORRESPONDING RESIDUAL FORCE      0.120    
 LARGEST INCREMENT OF DISP.         0.436       AT NODE       2720   DOF  1
 LARGEST CORRECTION TO DISP.       -2.490E-04   AT NODE       2723   DOF  1
          THE FORCE     EQUILIBRIUM EQUATIONS HAVE CONVERGED

 AVERAGE MOMENT                     6.387E+05   TIME AVG. MOMENT      2.054E+05
 LARGEST SCALED RESIDUAL MOMENT    -0.457       AT NODE       2666   DOF  5
  CORRESPONDING RESIDUAL MOMENT    -0.457    
 LARGEST INCREMENT OF ROTATION      1.189E-04   AT NODE       2240   DOF  5
 LARGEST CORRECTION TO ROTATION    -1.131E-07   AT NODE       2674   DOF  5
          THE MOMENT    EQUILIBRIUM EQUATIONS HAVE CONVERGED

 COMPATIBILITY ERRORS:
    TYPE                NUMBER EXCEEDING TOLERANCE  MAXIMUM ERROR        IN ELEMENT
 VOLUMETRIC                          0                4.137E-10               2348
          TIME INCREMENT MAY NOW INCREASE TO    0.171    

 ITERATION SUMMARY FOR THE INCREMENT:   2 TOTAL ITERATIONS, OF WHICH
   0 ARE SEVERE DISCONTINUITY ITERATIONS AND  2 ARE EQUILIBRIUM ITERATIONS.

 TIME INCREMENT COMPLETED  0.114    ,  FRACTION OF STEP COMPLETED  0.839    
 STEP TIME COMPLETED       0.839    ,  TOTAL TIME COMPLETED         3.84    


  INCREMENT    21 STARTS. ATTEMPT NUMBER  1, TIME INCREMENT  0.161    
 
	UNSYMMETRIC PURE THREAD-BASED DIRECT SPARSE SOLVER RUNNING ON
 	1 HOST x 1 MPI RANK PER HOST x 1 THREAD PER RANK
        NUMBER OF EQUATIONS:  2924
        NUMBER OF RHS:        1
        NUMBER OF FLOPS:      9.493e+06
        SOLVER ELAPSED TIME:  21ms

                    2 SEVERE DISCONTINUITIES OCCURRED DURING THIS ITERATION.
                    2 POINTS CHANGED FROM OPEN TO CLOSED

               CONVERGENCE CHECKS FOR SEVERE DISCONTINUITY ITERATION     1

   MAX. PENETRATION ERROR 25.1478E-03  AT NODE 2408 OF CONTACT PAIR 
   (UPPER_RIM_SLAVE_SURFACE,UPPER_RIM_MASTER_SURFACE)
   MAX. CONTACT FORCE ERROR 1.52506E+03 AT NODE 2408 OF CONTACT PAIR 
   (UPPER_RIM_SLAVE_SURFACE,UPPER_RIM_MASTER_SURFACE)
          PENETRATION ERROR TOO LARGE COMPARED TO DISPLACEMENT INCREMENT.

 AVERAGE FORCE                      1.849E+03   TIME AVG. FORCE        826.    
 LARGEST SCALED RESIDUAL FORCE      4.881E+04   AT NODE       2408   DOF  1
  CORRESPONDING RESIDUAL FORCE      4.881E+04
 LARGEST INCREMENT OF DISP.         0.568       AT NODE       2720   DOF  1
 LARGEST CORRECTION TO DISP.       -4.585E-02   AT NODE       2723   DOF  1
          FORCE     EQUILIBRIUM NOT ACHIEVED WITHIN TOLERANCE.

 AVERAGE MOMENT                     7.944E+05   TIME AVG. MOMENT      2.334E+05
 LARGEST SCALED RESIDUAL MOMENT      528.       AT NODE       2286   DOF  5
  CORRESPONDING RESIDUAL MOMENT      528.    
 LARGEST INCREMENT OF ROTATION      1.650E-04   AT NODE       2240   DOF  5
 LARGEST CORRECTION TO ROTATION     6.561E-06   AT NODE       2070   DOF  5
 ESTIMATE OF ROTATION CORRECTION    3.489E-08
          MOMENT    EQUILIB. ACCEPTED BASED ON SMALL RESIDUAL AND ESTIMATED CORRECTION

 COMPATIBILITY ERRORS:
    TYPE                NUMBER EXCEEDING TOLERANCE  MAXIMUM ERROR        IN ELEMENT
 VOLUMETRIC                          0               -3.512E-06               2561
 
	UNSYMMETRIC PURE THREAD-BASED DIRECT SPARSE SOLVER RUNNING ON
 	1 HOST x 1 MPI RANK PER HOST x 1 THREAD PER RANK
        NUMBER OF EQUATIONS:  2926
        NUMBER OF RHS:        1
        NUMBER OF FLOPS:      9.508e+06
        SOLVER ELAPSED TIME:  13ms

               CONVERGENCE CHECKS FOR EQUILIBRIUM ITERATION     1

   MAX. PENETRATION ERROR 64.6688E-09  AT NODE 2400 OF CONTACT PAIR 
   (UPPER_RIM_SLAVE_SURFACE,UPPER_RIM_MASTER_SURFACE)
   MAX. CONTACT FORCE ERROR 12.7652E-03  AT NODE 2400 OF CONTACT PAIR 
   (UPPER_RIM_SLAVE_SURFACE,UPPER_RIM_MASTER_SURFACE)
          THE CONTACT CONSTRAINTS HAVE CONVERGED.

 AVERAGE FORCE                      1.840E+03   TIME AVG. FORCE        826.    
 LARGEST SCALED RESIDUAL FORCE       9.90       AT NODE       2402   DOF  1
  CORRESPONDING RESIDUAL FORCE       9.90    
 LARGEST INCREMENT OF DISP.         0.568       AT NODE       2720   DOF  1
 LARGEST CORRECTION TO DISP.        2.421E-02   AT NODE       2408   DOF  1
          FORCE     EQUILIBRIUM NOT ACHIEVED WITHIN TOLERANCE.

 AVERAGE MOMENT                     7.899E+05   TIME AVG. MOMENT      2.332E+05
 LARGEST SCALED RESIDUAL MOMENT    -0.236       AT NODE       2286   DOF  5
  CORRESPONDING RESIDUAL MOMENT    -0.236    
 LARGEST INCREMENT OF ROTATION      1.649E-04   AT NODE       2240   DOF  5
 LARGEST CORRECTION TO ROTATION     6.971E-08   AT NODE       2583   DOF  5
          THE MOMENT    EQUILIBRIUM EQUATIONS HAVE CONVERGED

 COMPATIBILITY ERRORS:
    TYPE                NUMBER EXCEEDING TOLERANCE  MAXIMUM ERROR        IN ELEMENT
 VOLUMETRIC                          2               -2.358E-05               2111
 
	UNSYMMETRIC PURE THREAD-BASED DIRECT SPARSE SOLVER RUNNING ON
 	1 HOST x 1 MPI RANK PER HOST x 1 THREAD PER RANK
        NUMBER OF EQUATIONS:  2926
        NUMBER OF RHS:        1
        NUMBER OF FLOPS:      9.508e+06
        SOLVER ELAPSED TIME:  8ms

               CONVERGENCE CHECKS FOR EQUILIBRIUM ITERATION     2

   MAX. PENETRATION ERROR 496.356E-15   AT NODE 2400 OF CONTACT PAIR 
   (UPPER_RIM_SLAVE_SURFACE,UPPER_RIM_MASTER_SURFACE)
   MAX. CONTACT FORCE ERROR 97.9778E-09  AT NODE 2400 OF CONTACT PAIR 
   (UPPER_RIM_SLAVE_SURFACE,UPPER_RIM_MASTER_SURFACE)
          THE CONTACT CONSTRAINTS HAVE CONVERGED.

 AVERAGE FORCE                      1.840E+03   TIME AVG. FORCE        826.    
 LARGEST SCALED RESIDUAL FORCE     -1.230E-02   AT NODE       2401   DOF  1
  CORRESPONDING RESIDUAL FORCE     -1.230E-02
 LARGEST INCREMENT OF DISP.         0.568       AT NODE       2720   DOF  1
 LARGEST CORRECTION TO DISP.        5.686E-05   AT NODE       2408   DOF  2
          THE FORCE     EQUILIBRIUM EQUATIONS HAVE CONVERGED

 AVERAGE MOMENT                     7.899E+05   TIME AVG. MOMENT      2.332E+05
 LARGEST SCALED RESIDUAL MOMENT     1.433E-03   AT NODE       2328   DOF  5
  CORRESPONDING RESIDUAL MOMENT     1.433E-03
 LARGEST INCREMENT OF ROTATION      1.649E-04   AT NODE       2240   DOF  5
 LARGEST CORRECTION TO ROTATION     6.667E-10   AT NODE       2054   DOF  5
          THE MOMENT    EQUILIBRIUM EQUATIONS HAVE CONVERGED

 COMPATIBILITY ERRORS:
    TYPE                NUMBER EXCEEDING TOLERANCE  MAXIMUM ERROR        IN ELEMENT
 VOLUMETRIC                          0               -1.114E-10               2111

 ITERATION SUMMARY FOR THE INCREMENT:   3 TOTAL ITERATIONS, OF WHICH
   1 ARE SEVERE DISCONTINUITY ITERATIONS AND  2 ARE EQUILIBRIUM ITERATIONS.

 TIME INCREMENT COMPLETED  0.161    ,  FRACTION OF STEP COMPLETED   1.00    
 STEP TIME COMPLETED        1.00    ,  TOTAL TIME COMPLETED         4.00    

     RESTART INFORMATION WRITTEN IN STEP   4  AFTER INCREMENT    21


          THE ANALYSIS HAS BEEN COMPLETED



     ANALYSIS SUMMARY:
     TOTAL OF         53  INCREMENTS
                       8  CUTBACKS IN AUTOMATIC INCREMENTATION
                     206  ITERATIONS INCLUDING CONTACT ITERATIONS IF PRESENT
                     206  PASSES THROUGH THE EQUATION SOLVER OF WHICH 
                     206  INVOLVE MATRIX DECOMPOSITION, INCLUDING
                       0  DECOMPOSITION(S) OF THE MASS MATRIX
                       1  REORDERING OF EQUATIONS TO MINIMIZE WAVEFRONT
                       0  ADDITIONAL RESIDUAL EVALUATIONS FOR LINE SEARCHES
                       0  ADDITIONAL OPERATOR EVALUATIONS FOR LINE SEARCHES
                      34  WARNING MESSAGES DURING USER INPUT PROCESSING
                      20  WARNING MESSAGES DURING ANALYSIS
                       0  ANALYSIS WARNINGS ARE NUMERICAL PROBLEM MESSAGES
                       9  ANALYSIS WARNINGS ARE NEGATIVE EIGENVALUE MESSAGES
                       0  ERROR MESSAGES



     JOB TIME SUMMARY
       USER TIME (SEC)      =      20.    
       SYSTEM TIME (SEC)    =      2.8    
       TOTAL CPU TIME (SEC) =      23.    
       WALLCLOCK TIME (SEC) =           25
       MEMORY PEAK (GB)     =            0
