1

   Abaqus 2024.HF5                                  Date 16-Oct-2025   Time 09:26:55
   For use by APOLLO TYRES LTD under license from Dassault Systemes or its subsidiary.



                         The Abaqus Software is a product of:

                           Dassault Systemes Americas Corp.
                           1301 Atwood Avenue, Suite 101W
                              Johnston, RI 02919, USA
 


                   The Abaqus Software is available only under license
                   from Dassault Systemes or its subsidiary and may be
                   used or reproduced only in accordance with the terms
                   of such license.
 
                          On machine 1040SIMW13 
                          you are authorized to run
                          Abaqus/Standard until 29-Sep-2026

                          Your site id is: 200000000009793 


 
                    For assistance or any other information you may
                    obtain contact information for your local office
                    from the world wide web at:

                      https://www.3ds.com/products-services/simulia/services-support/

 
                * * * * * * * * * * * * * * * * * * * * * * * * * * * * * * 
                *                                                         * 
                *                   *****************                     * 
                *                   *  N O T I C E  *                     * 
                *                   *****************                     * 
                *                                                         * 
                *                                                         * 
                *                     Abaqus 2024.HF5                     * 
                *                                                         * 
                *       BUILD ID: 2024_09_25-22.49.41 RELr426 191541      * 
                *                                                         * 
                *                                                         * 
                *  Please make sure you are using                         * 
                *  release Abaqus 2024.HF5 manuals                        * 
                *  plus the notes accompanying this release.              * 
                *                                                         * 
                *                                                         * 
                *                                                         * 
                *                                                         * 
                * * * * * * * * * * * * * * * * * * * * * * * * * * * * * * 


 



     PROCESSING PART, INSTANCE, AND ASSEMBLY INFORMATION
   *******************************************************


     END PROCESSING PART, INSTANCE, AND ASSEMBLY INFORMATION
   ***********************************************************

1

   Abaqus 2024.HF5                                  Date 16-Oct-2025   Time 09:26:56
   For use by APOLLO TYRES LTD under license from Dassault Systemes or its subsidiary.

                                                                                     

                                      P A R A M E T E R   I N T E R P R E T A T I O N


                     
                     ***COMMENT: STARTING PARAMETER EVALUATION
                     
                     ***COMMENT: STARTING PARAMETER SUBSTITUTION
     LINE     5      
                     ***COMMENT: EVALUATION AND SUBSTITUTION OF PARAMETERS COMPLETED
                    --------------------------------------------------------------------------------
                        5   10   15   20   25   30   35   40   45   50   55   60   65   70   75   80
                    --------------------------------------------------------------------------------



     OPTIONS BEING PROCESSED
   ***************************



          READING RESTART DATA GENERATED ON RELEASE  6.24-6       DATE  16-Oct-2025     TIME  09:25:55

 ***ERROR: THE OLD RESTART FILE DOES NOT CONTAIN ANY ANALYSIS INFORMATION. 
           CHECK PREVIOUS ANALYSIS TO SEE IF ANALYSIS INFORMATION WAS WRITTEN 
           TO THE RESTART FILE PROPERLY. THE .MSG FILE INDICATES WHETHER 
           RESTART INFORMATION AT A PARTICULAR STEP AND INCREMENT NUMBER WERE 
           WRITTEN.



                              END OF USER INPUT PROCESSING



     JOB TIME SUMMARY
       USER TIME (SEC)      =     0.50    
       SYSTEM TIME (SEC)    =     0.10    
       TOTAL CPU TIME (SEC) =     0.60    
       WALLCLOCK TIME (SEC) =            1
